<edges>
    <edge id="SE0_W0_J0_0" from="W0" to="J0_0" numLanes="1" speed="13.9" shape="180.0,834.23 434.73,793.93 689.45,775.4"/>
    <edge id="SE0_J0_0_W0" from="J0_0" to="W0" numLanes="1" speed="13.9" shape="689.45,775.4 434.73,793.93 180.0,834.23"/>
    <edge id="SE1_J0_0_E0" from="J0_0" to="E0" numLanes="1" speed="13.9" shape="944.17,772.15 1198.33,788.4 1453.05,848.85 1707.78,878.43 1962.5,867.7"/>
    <edge id="SE1_E0_J0_0" from="E0" to="J0_0" numLanes="1" speed="13.9" shape="1962.5,867.7 1707.78,878.43 1453.05,848.85 1198.33,788.4 944.17,772.15"/>
    <edge id="SE2_N0_J0_0" from="N0" to="J0_0" numLanes="1" speed="13.9" shape="704.98,1220.0 863.68,1076.03 880.92,932.05 890.12,788.08"/>
    <edge id="SE2_J0_0_N0" from="J0_0" to="N0" numLanes="1" speed="13.9" shape="890.12,788.08 880.92,932.05 863.68,1076.03 704.98,1220.0"/>
    <edge id="SE3_J0_0_S0" from="J0_0" to="S0" numLanes="1" speed="13.9" shape="939.58,644.42 848.15,500.45 643.45,356.48 607.22,212.5"/>
    <edge id="SE3_S0_J0_0" from="S0" to="J0_0" numLanes="1" speed="13.9" shape="607.22,212.5 643.45,356.48 848.15,500.45 939.58,644.42"/>
</edges>