<?xml version="1.0" encoding="UTF-8"?>

<!-- generated on 2026-04-11T23:18:35.614866+05:30 by Eclipse SUMO netconvert 1.26.0
<netconvertConfiguration xmlns:xsi="http://www.w3.org/2001/XMLSchema-instance" xsi:noNamespaceSchemaLocation="http://sumo.dlr.de/xsd/netconvertConfiguration.xsd">

    <input>
        <node-files value="C:\Users\santhosh\OneDrive\Desktop\trafiic pro\web_runs\20260411_231835_309068\area.nod.xml"/>
        <edge-files value="C:\Users\santhosh\OneDrive\Desktop\trafiic pro\web_runs\20260411_231835_309068\area.edg.xml"/>
    </input>

    <output>
        <output-file value="C:\Users\santhosh\OneDrive\Desktop\trafiic pro\web_runs\20260411_231835_309068\area.net.xml"/>
    </output>

    <building_defaults>
        <default.lanewidth value="1.8"/>
    </building_defaults>

    <junctions>
        <junctions.corner-detail value="0"/>
    </junctions>

</netconvertConfiguration>
-->

<net version="1.20" limitTurnSpeed="5.50" xmlns:xsi="http://www.w3.org/2001/XMLSchema-instance" xsi:noNamespaceSchemaLocation="http://sumo.dlr.de/xsd/net_file.xsd">

    <location netOffset="-180.00,-212.50" convBoundary="0.00,0.00,1782.50,1007.50" origBoundary="180.00,212.50,1962.50,1220.00" projParameter="!"/>

    <edge id=":E0_0" function="internal">
        <lane id=":E0_0_0" index="0" speed="2.74" length="2.63" width="1.80" shape="1782.46,654.30 1783.16,654.72 1783.40,655.16 1783.19,655.62 1782.54,656.10"/>
    </edge>
    <edge id=":J0_0_0" function="internal">
        <lane id=":J0_0_0_0" index="0" speed="13.90" length="65.61" width="1.80" shape="768.10,560.80 743.55,560.64 725.81,563.72 714.88,570.05 710.76,579.63"/>
    </edge>
    <edge id=":J0_0_1" function="internal">
        <lane id=":J0_0_1_0" index="0" speed="13.90" length="262.60" width="1.80" shape="768.10,560.80 725.67,561.13 636.81,562.19 547.96,563.38 505.53,564.09"/>
    </edge>
    <edge id=":J0_0_2" function="internal">
        <lane id=":J0_0_2_0" index="0" speed="13.90" length="0.97" width="1.80" shape="768.10,560.80 768.02,559.84"/>
    </edge>
    <edge id=":J0_0_3" function="internal">
        <lane id=":J0_0_3_0" index="0" speed="2.74" length="2.09" width="1.80" shape="768.10,560.80 767.46,560.31 767.26,559.85 767.52,559.41 767.75,559.28"/>
    </edge>
    <edge id=":J0_0_16" function="internal">
        <lane id=":J0_0_16_0" index="0" speed="13.90" length="131.30" width="1.80" shape="768.02,559.84 756.68,429.03"/>
    </edge>
    <edge id=":J0_0_17" function="internal">
        <lane id=":J0_0_17_0" index="0" speed="2.74" length="0.54" width="1.80" shape="767.75,559.28 768.22,559.01"/>
    </edge>
    <edge id=":J0_0_4" function="internal">
        <lane id=":J0_0_4_0" index="0" speed="13.90" length="131.33" width="1.80" shape="758.20,428.06 768.22,559.01"/>
    </edge>
    <edge id=":J0_0_5" function="internal">
        <lane id=":J0_0_5_0" index="0" speed="13.90" length="158.87" width="1.80" shape="758.20,428.06 751.96,452.82 735.60,503.56 718.69,554.44 710.76,579.63"/>
    </edge>
    <edge id=":J0_0_6" function="internal">
        <lane id=":J0_0_6_0" index="0" speed="13.90" length="1.28" width="1.80" shape="758.20,428.06 757.07,428.67"/>
    </edge>
    <edge id=":J0_0_7" function="internal">
        <lane id=":J0_0_7_0" index="0" speed="2.74" length="1.31" width="1.80" shape="758.20,428.06 758.18,428.87 757.92,429.30"/>
    </edge>
    <edge id=":J0_0_18" function="internal">
        <lane id=":J0_0_18_0" index="0" speed="13.90" length="285.68" width="1.80" shape="757.07,428.67 505.53,564.09"/>
    </edge>
    <edge id=":J0_0_19" function="internal">
        <lane id=":J0_0_19_0" index="0" speed="2.74" length="1.31" width="1.80" shape="757.92,429.30 757.42,429.35 756.68,429.03"/>
    </edge>
    <edge id=":J0_0_8" function="internal">
        <lane id=":J0_0_8_0" index="0" speed="13.90" length="284.43" width="1.80" shape="505.40,562.29 756.68,429.03"/>
    </edge>
    <edge id=":J0_0_9" function="internal">
        <lane id=":J0_0_9_0" index="0" speed="13.90" length="262.85" width="1.80" shape="505.40,562.29 547.86,561.58 636.81,560.39 725.75,559.33 768.22,559.01"/>
    </edge>
    <edge id=":J0_0_10" function="internal">
        <lane id=":J0_0_10_0" index="0" speed="13.90" length="17.78" width="1.80" shape="505.40,562.29 523.12,563.79"/>
    </edge>
    <edge id=":J0_0_11" function="internal">
        <lane id=":J0_0_11_0" index="0" speed="2.74" length="2.36" width="1.80" shape="505.40,562.29 506.10,562.69 506.36,563.12 506.17,563.59 505.74,563.92"/>
    </edge>
    <edge id=":J0_0_20" function="internal">
        <lane id=":J0_0_20_0" index="0" speed="13.90" length="188.32" width="1.80" shape="523.12,563.79 710.76,579.63"/>
    </edge>
    <edge id=":J0_0_21" function="internal">
        <lane id=":J0_0_21_0" index="0" speed="2.74" length="0.27" width="1.80" shape="505.74,563.92 505.53,564.09"/>
    </edge>
    <edge id=":J0_0_12" function="internal">
        <lane id=":J0_0_12_0" index="0" speed="13.90" length="204.02" width="1.80" shape="708.97,579.51 505.53,564.09"/>
    </edge>
    <edge id=":J0_0_13" function="internal">
        <lane id=":J0_0_13_0" index="0" speed="13.90" length="157.92" width="1.80" shape="708.97,579.51 716.93,554.49 733.95,503.98 750.40,453.62 756.68,429.03"/>
    </edge>
    <edge id=":J0_0_14" function="internal">
        <lane id=":J0_0_14_0" index="0" speed="13.90" length="12.12" width="1.80" shape="708.97,579.51 713.25,569.16 714.03,568.68"/>
    </edge>
    <edge id=":J0_0_15" function="internal">
        <lane id=":J0_0_15_0" index="0" speed="2.74" length="1.31" width="1.80" shape="708.97,579.51 709.46,578.87 709.92,578.67"/>
    </edge>
    <edge id=":J0_0_22" function="internal">
        <lane id=":J0_0_22_0" index="0" speed="13.90" length="56.29" width="1.80" shape="714.03,568.68 724.55,562.29 742.88,558.91 768.22,559.01"/>
    </edge>
    <edge id=":J0_0_23" function="internal">
        <lane id=":J0_0_23_0" index="0" speed="2.74" length="1.31" width="1.80" shape="709.92,578.67 710.36,578.93 710.76,579.63"/>
    </edge>
    <edge id=":N0_0" function="internal">
        <lane id=":N0_0_0" index="0" speed="2.74" length="2.63" width="1.80" shape="525.58,1008.17 524.78,1008.29 524.31,1008.10 524.18,1007.62 524.38,1006.83"/>
    </edge>
    <edge id=":S0_0" function="internal">
        <lane id=":S0_0_0" index="0" speed="2.74" length="2.63" width="1.80" shape="426.35,0.22 426.62,-0.54 427.00,-0.87 427.49,-0.76 428.09,-0.22"/>
    </edge>
    <edge id=":W0_0" function="internal">
        <lane id=":W0_0_0" index="0" speed="2.74" length="2.63" width="1.80" shape="0.14,622.62 -0.60,622.28 -0.89,621.87 -0.74,621.39 -0.14,620.84"/>
    </edge>

    <edge id="SE0_J0_0_W0" from="J0_0" to="W0" priority="-1" shape="509.45,562.90 254.73,581.43 0.00,621.73">
        <lane id="SE0_J0_0_W0_0" index="0" speed="13.90" length="509.22" width="1.80" shape="505.53,564.09 254.83,582.32 0.14,622.62"/>
    </edge>
    <edge id="SE0_W0_J0_0" from="W0" to="J0_0" priority="-1" shape="0.00,621.73 254.73,581.43 509.45,562.90">
        <lane id="SE0_W0_J0_0_0" index="0" speed="13.90" length="509.37" width="1.80" shape="-0.14,620.84 254.63,580.54 505.40,562.29"/>
    </edge>
    <edge id="SE1_E0_J0_0" from="E0" to="J0_0" priority="-1" shape="1782.50,655.20 1527.78,665.93 1273.05,636.35 1018.33,575.90 764.17,559.65">
        <lane id="SE1_E0_J0_0_0" index="0" speed="13.90" length="1023.96" width="1.80" shape="1782.54,656.10 1527.75,666.83 1272.89,637.24 1018.20,576.79 768.10,560.80"/>
    </edge>
    <edge id="SE1_J0_0_E0" from="J0_0" to="E0" priority="-1" shape="764.17,559.65 1018.33,575.90 1273.05,636.35 1527.78,665.93 1782.50,655.20">
        <lane id="SE1_J0_0_E0_0" index="0" speed="13.90" length="1023.77" width="1.80" shape="768.22,559.01 1018.46,575.01 1273.21,635.46 1527.81,665.03 1782.46,654.30"/>
    </edge>
    <edge id="SE2_J0_0_N0" from="J0_0" to="N0" priority="-1" shape="710.12,575.58 700.92,719.55 683.68,863.53 524.98,1007.50">
        <lane id="SE2_J0_0_N0_0" index="0" speed="13.90" length="500.27" width="1.80" shape="710.76,579.63 701.82,719.63 684.53,863.97 525.58,1008.17"/>
    </edge>
    <edge id="SE2_N0_J0_0" from="N0" to="J0_0" priority="-1" shape="524.98,1007.50 683.68,863.53 700.92,719.55 710.12,575.58">
        <lane id="SE2_N0_J0_0_0" index="0" speed="13.90" length="498.82" width="1.80" shape="524.38,1006.83 682.83,863.09 700.02,719.47 708.97,579.51"/>
    </edge>
    <edge id="SE3_J0_0_S0" from="J0_0" to="S0" priority="-1" shape="759.58,431.92 668.15,287.95 463.45,143.98 427.22,0.00">
        <lane id="SE3_J0_0_S0_0" index="0" speed="13.90" length="565.59" width="1.80" shape="756.68,429.03 667.49,288.58 462.66,144.52 426.35,0.22"/>
    </edge>
    <edge id="SE3_S0_J0_0" from="S0" to="J0_0" priority="-1" shape="427.22,0.00 463.45,143.98 668.15,287.95 759.58,431.92">
        <lane id="SE3_S0_J0_0_0" index="0" speed="13.90" length="564.96" width="1.80" shape="428.09,-0.22 464.24,143.44 668.81,287.32 758.20,428.06"/>
    </edge>

    <tlLogic id="J0_0" type="static" programID="0" offset="0">
        <phase duration="24" state="GGggrrrrGGggrrrr"/>
        <phase duration="3"  state="yyyyrrrryyyyrrrr"/>
        <phase duration="18" state="rrrrrrrrrrrrrrrr"/>
        <phase duration="24" state="rrrrGGggrrrrGGgg"/>
        <phase duration="3"  state="rrrryyyyrrrryyyy"/>
        <phase duration="18" state="rrrrrrrrrrrrrrrr"/>
    </tlLogic>

    <junction id="E0" type="priority" x="1782.50" y="655.20" incLanes="SE1_J0_0_E0_0" intLanes=":E0_0_0" shape="1782.50,655.20 1782.42,653.40 1782.50,655.20">
        <request index="0" response="0" foes="0" cont="0"/>
    </junction>
    <junction id="J0_0" type="traffic_light" x="715.37" y="560.34" incLanes="SE1_E0_J0_0_0 SE3_S0_J0_0_0 SE0_W0_J0_0_0 SE2_N0_J0_0_0" intLanes=":J0_0_0_0 :J0_0_1_0 :J0_0_16_0 :J0_0_17_0 :J0_0_4_0 :J0_0_5_0 :J0_0_18_0 :J0_0_19_0 :J0_0_8_0 :J0_0_9_0 :J0_0_20_0 :J0_0_21_0 :J0_0_12_0 :J0_0_13_0 :J0_0_22_0 :J0_0_23_0" shape="768.05,561.70 768.28,558.11 758.96,427.58 755.92,429.51 505.33,561.39 505.59,564.99 708.07,579.46 711.66,579.69">
        <request index="0"  response="0000000000000000" foes="1000010000100000" cont="0"/>
        <request index="1"  response="0100000001000000" foes="0111110001100000" cont="0"/>
        <request index="2"  response="0100001101000000" foes="0110001111100000" cont="1"/>
        <request index="3"  response="0100001000010000" foes="0100001000010000" cont="1"/>
        <request index="4"  response="0000001000000000" foes="0100001000001000" cont="0"/>
        <request index="5"  response="0000011000000111" foes="1100011000000111" cont="0"/>
        <request index="6"  response="0011011000000110" foes="0011111000000110" cont="1"/>
        <request index="7"  response="0010000100000100" foes="0010000100000100" cont="1"/>
        <request index="8"  response="0000000000000000" foes="0010000010000100" cont="0"/>
        <request index="9"  response="0100000001000000" foes="0110000001111100" cont="0"/>
        <request index="10" response="0100000001000011" foes="1110000001100011" cont="1"/>
        <request index="11" response="0001000001000010" foes="0001000001000010" cont="1"/>
        <request index="12" response="0000000000000010" foes="0000100001000010" cont="0"/>
        <request index="13" response="0000011100000110" foes="0000011111000110" cont="0"/>
        <request index="14" response="0000011000110110" foes="0000011000111110" cont="1"/>
        <request index="15" response="0000010000100001" foes="0000010000100001" cont="1"/>
    </junction>
    <junction id="N0" type="priority" x="524.98" y="1007.50" incLanes="SE2_J0_0_N0_0" intLanes=":N0_0_0" shape="524.98,1007.50 526.19,1008.83 524.98,1007.50">
        <request index="0" response="0" foes="0" cont="0"/>
    </junction>
    <junction id="S0" type="priority" x="427.22" y="0.00" incLanes="SE3_J0_0_S0_0" intLanes=":S0_0_0" shape="427.22,-0.00 425.47,0.44 427.22,0.00">
        <request index="0" response="0" foes="0" cont="0"/>
    </junction>
    <junction id="W0" type="priority" x="0.00" y="621.73" incLanes="SE0_J0_0_W0_0" intLanes=":W0_0_0" shape="0.00,621.73 0.28,623.51 0.00,621.73">
        <request index="0" response="0" foes="0" cont="0"/>
    </junction>

    <junction id=":J0_0_16_0" type="internal" x="768.02" y="559.84" incLanes=":J0_0_2_0 SE0_W0_J0_0_0" intLanes=":J0_0_5_0 :J0_0_6_0 :J0_0_7_0 :J0_0_8_0 :J0_0_9_0 :J0_0_13_0 :J0_0_14_0"/>
    <junction id=":J0_0_17_0" type="internal" x="767.75" y="559.28" incLanes=":J0_0_3_0 SE0_W0_J0_0_0 SE2_N0_J0_0_0 SE3_S0_J0_0_0" intLanes=":J0_0_4_0 :J0_0_9_0 :J0_0_14_0"/>
    <junction id=":J0_0_18_0" type="internal" x="757.07" y="428.67" incLanes=":J0_0_6_0 SE2_N0_J0_0_0" intLanes=":J0_0_1_0 :J0_0_2_0 :J0_0_9_0 :J0_0_10_0 :J0_0_11_0 :J0_0_12_0 :J0_0_13_0"/>
    <junction id=":J0_0_19_0" type="internal" x="757.92" y="429.30" incLanes=":J0_0_7_0 SE0_W0_J0_0_0 SE1_E0_J0_0_0 SE2_N0_J0_0_0" intLanes=":J0_0_2_0 :J0_0_8_0 :J0_0_13_0"/>
    <junction id=":J0_0_20_0" type="internal" x="523.12" y="563.79" incLanes=":J0_0_10_0 SE1_E0_J0_0_0" intLanes=":J0_0_0_0 :J0_0_1_0 :J0_0_5_0 :J0_0_6_0 :J0_0_13_0 :J0_0_14_0 :J0_0_15_0"/>
    <junction id=":J0_0_21_0" type="internal" x="505.74" y="563.92" incLanes=":J0_0_11_0 SE1_E0_J0_0_0 SE2_N0_J0_0_0 SE3_S0_J0_0_0" intLanes=":J0_0_1_0 :J0_0_6_0 :J0_0_12_0"/>
    <junction id=":J0_0_22_0" type="internal" x="714.03" y="568.68" incLanes=":J0_0_14_0 SE3_S0_J0_0_0" intLanes=":J0_0_1_0 :J0_0_2_0 :J0_0_3_0 :J0_0_4_0 :J0_0_5_0 :J0_0_9_0 :J0_0_10_0"/>
    <junction id=":J0_0_23_0" type="internal" x="709.92" y="578.67" incLanes=":J0_0_15_0 SE0_W0_J0_0_0 SE1_E0_J0_0_0 SE3_S0_J0_0_0" intLanes=":J0_0_0_0 :J0_0_5_0 :J0_0_10_0"/>

    <connection from="SE0_J0_0_W0" to="SE0_W0_J0_0" fromLane="0" toLane="0" via=":W0_0_0" dir="t" state="M"/>
    <connection from="SE0_W0_J0_0" to="SE3_J0_0_S0" fromLane="0" toLane="0" via=":J0_0_8_0" tl="J0_0" linkIndex="8" dir="r" state="O"/>
    <connection from="SE0_W0_J0_0" to="SE1_J0_0_E0" fromLane="0" toLane="0" via=":J0_0_9_0" tl="J0_0" linkIndex="9" dir="s" state="O"/>
    <connection from="SE0_W0_J0_0" to="SE2_J0_0_N0" fromLane="0" toLane="0" via=":J0_0_10_0" tl="J0_0" linkIndex="10" dir="l" state="o"/>
    <connection from="SE0_W0_J0_0" to="SE0_J0_0_W0" fromLane="0" toLane="0" via=":J0_0_11_0" tl="J0_0" linkIndex="11" dir="t" state="o"/>
    <connection from="SE1_E0_J0_0" to="SE2_J0_0_N0" fromLane="0" toLane="0" via=":J0_0_0_0" tl="J0_0" linkIndex="0" dir="r" state="O"/>
    <connection from="SE1_E0_J0_0" to="SE0_J0_0_W0" fromLane="0" toLane="0" via=":J0_0_1_0" tl="J0_0" linkIndex="1" dir="s" state="O"/>
    <connection from="SE1_E0_J0_0" to="SE3_J0_0_S0" fromLane="0" toLane="0" via=":J0_0_2_0" tl="J0_0" linkIndex="2" dir="l" state="o"/>
    <connection from="SE1_E0_J0_0" to="SE1_J0_0_E0" fromLane="0" toLane="0" via=":J0_0_3_0" tl="J0_0" linkIndex="3" dir="t" state="o"/>
    <connection from="SE1_J0_0_E0" to="SE1_E0_J0_0" fromLane="0" toLane="0" via=":E0_0_0" dir="t" state="M"/>
    <connection from="SE2_J0_0_N0" to="SE2_N0_J0_0" fromLane="0" toLane="0" via=":N0_0_0" dir="t" state="M"/>
    <connection from="SE2_N0_J0_0" to="SE0_J0_0_W0" fromLane="0" toLane="0" via=":J0_0_12_0" tl="J0_0" linkIndex="12" dir="r" state="o"/>
    <connection from="SE2_N0_J0_0" to="SE3_J0_0_S0" fromLane="0" toLane="0" via=":J0_0_13_0" tl="J0_0" linkIndex="13" dir="s" state="o"/>
    <connection from="SE2_N0_J0_0" to="SE1_J0_0_E0" fromLane="0" toLane="0" via=":J0_0_14_0" tl="J0_0" linkIndex="14" dir="l" state="o"/>
    <connection from="SE2_N0_J0_0" to="SE2_J0_0_N0" fromLane="0" toLane="0" via=":J0_0_15_0" tl="J0_0" linkIndex="15" dir="t" state="o"/>
    <connection from="SE3_J0_0_S0" to="SE3_S0_J0_0" fromLane="0" toLane="0" via=":S0_0_0" dir="t" state="M"/>
    <connection from="SE3_S0_J0_0" to="SE1_J0_0_E0" fromLane="0" toLane="0" via=":J0_0_4_0" tl="J0_0" linkIndex="4" dir="r" state="o"/>
    <connection from="SE3_S0_J0_0" to="SE2_J0_0_N0" fromLane="0" toLane="0" via=":J0_0_5_0" tl="J0_0" linkIndex="5" dir="s" state="o"/>
    <connection from="SE3_S0_J0_0" to="SE0_J0_0_W0" fromLane="0" toLane="0" via=":J0_0_6_0" tl="J0_0" linkIndex="6" dir="l" state="o"/>
    <connection from="SE3_S0_J0_0" to="SE3_J0_0_S0" fromLane="0" toLane="0" via=":J0_0_7_0" tl="J0_0" linkIndex="7" dir="t" state="o"/>

    <connection from=":E0_0" to="SE1_E0_J0_0" fromLane="0" toLane="0" dir="t" state="M"/>
    <connection from=":J0_0_0" to="SE2_J0_0_N0" fromLane="0" toLane="0" dir="r" state="M"/>
    <connection from=":J0_0_1" to="SE0_J0_0_W0" fromLane="0" toLane="0" dir="s" state="M"/>
    <connection from=":J0_0_2" to="SE3_J0_0_S0" fromLane="0" toLane="0" via=":J0_0_16_0" dir="l" state="m"/>
    <connection from=":J0_0_16" to="SE3_J0_0_S0" fromLane="0" toLane="0" dir="l" state="M"/>
    <connection from=":J0_0_3" to="SE1_J0_0_E0" fromLane="0" toLane="0" via=":J0_0_17_0" dir="t" state="m"/>
    <connection from=":J0_0_17" to="SE1_J0_0_E0" fromLane="0" toLane="0" dir="t" state="M"/>
    <connection from=":J0_0_4" to="SE1_J0_0_E0" fromLane="0" toLane="0" dir="r" state="M"/>
    <connection from=":J0_0_5" to="SE2_J0_0_N0" fromLane="0" toLane="0" dir="s" state="M"/>
    <connection from=":J0_0_6" to="SE0_J0_0_W0" fromLane="0" toLane="0" via=":J0_0_18_0" dir="l" state="m"/>
    <connection from=":J0_0_18" to="SE0_J0_0_W0" fromLane="0" toLane="0" dir="l" state="M"/>
    <connection from=":J0_0_7" to="SE3_J0_0_S0" fromLane="0" toLane="0" via=":J0_0_19_0" dir="t" state="m"/>
    <connection from=":J0_0_19" to="SE3_J0_0_S0" fromLane="0" toLane="0" dir="t" state="M"/>
    <connection from=":J0_0_8" to="SE3_J0_0_S0" fromLane="0" toLane="0" dir="r" state="M"/>
    <connection from=":J0_0_9" to="SE1_J0_0_E0" fromLane="0" toLane="0" dir="s" state="M"/>
    <connection from=":J0_0_10" to="SE2_J0_0_N0" fromLane="0" toLane="0" via=":J0_0_20_0" dir="l" state="m"/>
    <connection from=":J0_0_20" to="SE2_J0_0_N0" fromLane="0" toLane="0" dir="l" state="M"/>
    <connection from=":J0_0_11" to="SE0_J0_0_W0" fromLane="0" toLane="0" via=":J0_0_21_0" dir="t" state="m"/>
    <connection from=":J0_0_21" to="SE0_J0_0_W0" fromLane="0" toLane="0" dir="t" state="M"/>
    <connection from=":J0_0_12" to="SE0_J0_0_W0" fromLane="0" toLane="0" dir="r" state="M"/>
    <connection from=":J0_0_13" to="SE3_J0_0_S0" fromLane="0" toLane="0" dir="s" state="M"/>
    <connection from=":J0_0_14" to="SE1_J0_0_E0" fromLane="0" toLane="0" via=":J0_0_22_0" dir="l" state="m"/>
    <connection from=":J0_0_22" to="SE1_J0_0_E0" fromLane="0" toLane="0" dir="l" state="M"/>
    <connection from=":J0_0_15" to="SE2_J0_0_N0" fromLane="0" toLane="0" via=":J0_0_23_0" dir="t" state="m"/>
    <connection from=":J0_0_23" to="SE2_J0_0_N0" fromLane="0" toLane="0" dir="t" state="M"/>
    <connection from=":N0_0" to="SE2_N0_J0_0" fromLane="0" toLane="0" dir="t" state="M"/>
    <connection from=":S0_0" to="SE3_S0_J0_0" fromLane="0" toLane="0" dir="t" state="M"/>
    <connection from=":W0_0" to="SE0_W0_J0_0" fromLane="0" toLane="0" dir="t" state="M"/>

</net>
