<?xml version="1.0" encoding="UTF-8"?>

<!-- generated on 2026-04-12T11:49:38.803169+05:30 by Eclipse SUMO netconvert 1.26.0
<netconvertConfiguration xmlns:xsi="http://www.w3.org/2001/XMLSchema-instance" xsi:noNamespaceSchemaLocation="http://sumo.dlr.de/xsd/netconvertConfiguration.xsd">

    <input>
        <node-files value="C:\Users\santhosh\OneDrive\Desktop\trafiic pro\web_runs\20260412_114938_601407\area.nod.xml"/>
        <edge-files value="C:\Users\santhosh\OneDrive\Desktop\trafiic pro\web_runs\20260412_114938_601407\area.edg.xml"/>
    </input>

    <output>
        <output-file value="C:\Users\santhosh\OneDrive\Desktop\trafiic pro\web_runs\20260412_114938_601407\area.net.xml"/>
    </output>

    <building_defaults>
        <default.lanewidth value="1.5"/>
    </building_defaults>

    <junctions>
        <junctions.corner-detail value="0"/>
    </junctions>

</netconvertConfiguration>
-->

<net version="1.20" limitTurnSpeed="5.50" xmlns:xsi="http://www.w3.org/2001/XMLSchema-instance" xsi:noNamespaceSchemaLocation="http://sumo.dlr.de/xsd/net_file.xsd">

    <location netOffset="-70.00,-70.00" convBoundary="0.00,0.00,820.00,500.00" origBoundary="70.00,70.00,890.00,570.00" projParameter="!"/>

    <edge id=":P0_0" function="internal">
        <lane id=":P0_0_0" index="0" speed="9.92" length="13.18" width="1.50" shape="309.38,323.43 308.32,320.47 306.50,317.98 303.93,315.95 300.60,314.38"/>
    </edge>
    <edge id=":P0_1" function="internal">
        <lane id=":P0_1_0" index="0" speed="13.90" length="14.83" width="1.50" shape="309.38,323.43 308.41,319.84 307.11,316.39 305.52,313.06 303.66,309.82"/>
    </edge>
    <edge id=":P0_2" function="internal">
        <lane id=":P0_2_0" index="0" speed="5.78" length="8.07" width="1.50" shape="309.38,323.43 309.09,320.05 309.98,318.12 312.05,317.64 312.45,317.76"/>
    </edge>
    <edge id=":P0_3" function="internal">
        <lane id=":P0_3_0" index="0" speed="2.50" length="1.77" width="1.50" shape="309.38,323.43 309.62,322.80 309.95,322.54 310.36,322.65 310.54,322.83"/>
    </edge>
    <edge id=":P0_16" function="internal">
        <lane id=":P0_16_0" index="0" speed="5.78" length="2.98" width="1.50" shape="312.45,317.76 315.31,318.61"/>
    </edge>
    <edge id=":P0_17" function="internal">
        <lane id=":P0_17_0" index="0" speed="2.50" length="0.42" width="1.50" shape="310.54,322.83 310.84,323.12"/>
    </edge>
    <edge id=":P0_4" function="internal">
        <lane id=":P0_4_0" index="0" speed="4.74" length="7.19" width="1.50" shape="314.70,319.98 312.59,319.35 311.24,319.66 310.66,320.92 310.84,323.12"/>
    </edge>
    <edge id=":P0_5" function="internal">
        <lane id=":P0_5_0" index="0" speed="13.90" length="15.17" width="1.50" shape="314.70,319.98 300.60,314.38"/>
    </edge>
    <edge id=":P0_6" function="internal">
        <lane id=":P0_6_0" index="0" speed="13.90" length="7.11" width="1.50" shape="314.70,319.98 311.42,318.14 308.82,316.04"/>
    </edge>
    <edge id=":P0_7" function="internal">
        <lane id=":P0_7_0" index="0" speed="2.50" length="1.80" width="1.50" shape="314.70,319.98 314.34,319.41 314.32,318.99 314.64,318.73 314.93,318.68"/>
    </edge>
    <edge id=":P0_18" function="internal">
        <lane id=":P0_18_0" index="0" speed="13.90" length="8.10" width="1.50" shape="308.82,316.04 308.45,315.74 305.85,312.92 303.66,309.82"/>
    </edge>
    <edge id=":P0_19" function="internal">
        <lane id=":P0_19_0" index="0" speed="2.50" length="0.39" width="1.50" shape="314.93,318.68 315.31,318.61"/>
    </edge>
    <edge id=":P0_8" function="internal">
        <lane id=":P0_8_0" index="0" speed="13.90" length="14.33" width="1.50" shape="304.94,309.04 307.03,312.04 309.39,314.66 312.13,316.86 315.31,318.61"/>
    </edge>
    <edge id=":P0_9" function="internal">
        <lane id=":P0_9_0" index="0" speed="13.90" length="15.34" width="1.50" shape="304.94,309.04 306.82,312.34 308.48,315.84 309.85,319.45 310.84,323.12"/>
    </edge>
    <edge id=":P0_10" function="internal">
        <lane id=":P0_10_0" index="0" speed="5.74" length="5.85" width="1.50" shape="304.94,309.04 306.73,312.70 306.62,314.47"/>
    </edge>
    <edge id=":P0_11" function="internal">
        <lane id=":P0_11_0" index="0" speed="2.50" length="1.93" width="1.50" shape="304.94,309.04 304.92,309.71 304.70,310.07 304.28,310.11 303.90,309.93"/>
    </edge>
    <edge id=":P0_20" function="internal">
        <lane id=":P0_20_0" index="0" speed="5.74" length="6.55" width="1.50" shape="306.62,314.47 306.60,314.82 304.56,315.38 300.60,314.38"/>
    </edge>
    <edge id=":P0_21" function="internal">
        <lane id=":P0_21_0" index="0" speed="2.50" length="0.27" width="1.50" shape="303.90,309.93 303.66,309.82"/>
    </edge>
    <edge id=":P0_12" function="internal">
        <lane id=":P0_12_0" index="0" speed="4.50" length="7.29" width="1.50" shape="301.11,312.97 303.44,313.56 304.64,313.23 304.72,311.98 303.66,309.82"/>
    </edge>
    <edge id=":P0_13" function="internal">
        <lane id=":P0_13_0" index="0" speed="13.90" length="15.28" width="1.50" shape="301.11,312.97 315.31,318.61"/>
    </edge>
    <edge id=":P0_14" function="internal">
        <lane id=":P0_14_0" index="0" speed="10.47" length="7.89" width="1.50" shape="301.11,312.97 304.79,314.71 307.64,316.99 307.74,317.12"/>
    </edge>
    <edge id=":P0_15" function="internal">
        <lane id=":P0_15_0" index="0" speed="2.50" length="1.92" width="1.50" shape="301.11,312.97 301.51,313.51 301.56,313.93 301.26,314.22 300.86,314.32"/>
    </edge>
    <edge id=":P0_22" function="internal">
        <lane id=":P0_22_0" index="0" speed="10.47" length="6.82" width="1.50" shape="307.74,317.12 309.66,319.79 310.84,323.12"/>
    </edge>
    <edge id=":P0_23" function="internal">
        <lane id=":P0_23_0" index="0" speed="2.50" length="0.27" width="1.50" shape="300.86,314.32 300.60,314.38"/>
    </edge>
    <edge id=":P1_0" function="internal">
        <lane id=":P1_0_0" index="0" speed="9.57" length="13.07" width="1.50" shape="561.81,421.76 558.68,423.69 555.60,424.68 552.56,424.76 549.57,423.90"/>
    </edge>
    <edge id=":P1_1" function="internal">
        <lane id=":P1_1_0" index="0" speed="5.73" length="5.91" width="1.50" shape="561.81,421.76 558.67,423.62 556.56,423.64 556.48,423.51"/>
    </edge>
    <edge id=":P1_2" function="internal">
        <lane id=":P1_2_0" index="0" speed="2.50" length="2.03" width="1.50" shape="561.81,421.76 561.14,421.80 560.76,421.62 560.68,421.21 560.85,420.72"/>
    </edge>
    <edge id=":P1_9" function="internal">
        <lane id=":P1_9_0" index="0" speed="5.73" length="5.61" width="1.50" shape="556.48,423.51 555.48,421.82 555.45,418.17"/>
    </edge>
    <edge id=":P1_10" function="internal">
        <lane id=":P1_10_0" index="0" speed="2.50" length="0.16" width="1.50" shape="560.85,420.72 560.91,420.57"/>
    </edge>
    <edge id=":P1_3" function="internal">
        <lane id=":P1_3_0" index="0" speed="4.61" length="7.19" width="1.50" shape="556.94,418.33 556.96,420.61 557.63,421.74 558.94,421.73 560.91,420.57"/>
    </edge>
    <edge id=":P1_4" function="internal">
        <lane id=":P1_4_0" index="0" speed="6.40" length="11.46" width="1.50" shape="556.94,418.33 556.14,421.84 554.65,423.94 552.46,424.63 549.57,423.90"/>
    </edge>
    <edge id=":P1_5" function="internal">
        <lane id=":P1_5_0" index="0" speed="2.50" length="2.05" width="1.50" shape="556.94,418.33 556.51,418.85 556.11,419.00 555.76,418.77 555.51,418.30"/>
    </edge>
    <edge id=":P1_11" function="internal">
        <lane id=":P1_11_0" index="0" speed="2.50" length="0.14" width="1.50" shape="555.51,418.30 555.45,418.17"/>
    </edge>
    <edge id=":P1_6" function="internal">
        <lane id=":P1_6_0" index="0" speed="5.54" length="8.45" width="1.50" shape="550.17,422.53 552.23,423.02 553.79,422.46 554.86,420.84 555.45,418.17"/>
    </edge>
    <edge id=":P1_7" function="internal">
        <lane id=":P1_7_0" index="0" speed="8.98" length="11.47" width="1.50" shape="550.17,422.53 552.77,423.26 555.42,423.18 558.14,422.28 560.91,420.57"/>
    </edge>
    <edge id=":P1_8" function="internal">
        <lane id=":P1_8_0" index="0" speed="2.50" length="0.68" width="1.50" shape="550.17,422.53 550.54,423.10"/>
    </edge>
    <edge id=":P1_12" function="internal">
        <lane id=":P1_12_0" index="0" speed="2.50" length="1.51" width="1.50" shape="550.54,423.10 550.55,423.52 550.23,423.79 549.57,423.90"/>
    </edge>
    <edge id=":P2_0" function="internal">
        <lane id=":P2_0_0" index="0" speed="6.42" length="8.23" width="1.50" shape="209.48,14.35 208.93,12.10 207.88,10.47 206.32,9.45 204.26,9.04"/>
    </edge>
    <edge id=":P2_1" function="internal">
        <lane id=":P2_1_0" index="0" speed="6.32" length="10.25" width="1.50" shape="209.48,14.35 209.56,11.47 210.58,9.48 212.53,8.37 215.40,8.15"/>
    </edge>
    <edge id=":P2_2" function="internal">
        <lane id=":P2_2_0" index="0" speed="2.50" length="1.10" width="1.50" shape="209.48,14.35 209.79,13.75 210.14,13.52"/>
    </edge>
    <edge id=":P2_9" function="internal">
        <lane id=":P2_9_0" index="0" speed="2.50" length="1.10" width="1.50" shape="210.14,13.52 210.53,13.67 210.97,14.19"/>
    </edge>
    <edge id=":P2_3" function="internal">
        <lane id=":P2_3_0" index="0" speed="5.46" length="7.50" width="1.50" shape="215.30,9.65 213.20,9.81 211.78,10.62 211.03,12.08 210.97,14.19"/>
    </edge>
    <edge id=":P2_4" function="internal">
        <lane id=":P2_4_0" index="0" speed="13.90" length="11.06" width="1.50" shape="215.30,9.65 204.26,9.04"/>
    </edge>
    <edge id=":P2_5" function="internal">
        <lane id=":P2_5_0" index="0" speed="2.50" length="1.85" width="1.50" shape="215.30,9.65 214.77,9.23 214.61,8.85 214.82,8.49 215.11,8.32"/>
    </edge>
    <edge id=":P2_10" function="internal">
        <lane id=":P2_10_0" index="0" speed="2.50" length="0.34" width="1.50" shape="215.11,8.32 215.40,8.15"/>
    </edge>
    <edge id=":P2_6" function="internal">
        <lane id=":P2_6_0" index="0" speed="13.90" length="11.10" width="1.50" shape="204.32,7.55 215.40,8.15"/>
    </edge>
    <edge id=":P2_7" function="internal">
        <lane id=":P2_7_0" index="0" speed="7.18" length="4.78" width="1.50" shape="204.32,7.55 206.96,8.05 208.72,9.18"/>
    </edge>
    <edge id=":P2_8" function="internal">
        <lane id=":P2_8_0" index="0" speed="2.50" length="1.89" width="1.50" shape="204.32,7.55 204.87,7.94 205.04,8.33 204.83,8.69 204.51,8.89"/>
    </edge>
    <edge id=":P2_11" function="internal">
        <lane id=":P2_11_0" index="0" speed="7.18" length="5.60" width="1.50" shape="208.72,9.18 208.94,9.33 210.28,11.37 210.97,14.19"/>
    </edge>
    <edge id=":P2_12" function="internal">
        <lane id=":P2_12_0" index="0" speed="2.50" length="0.30" width="1.50" shape="204.51,8.89 204.26,9.04"/>
    </edge>
    <edge id=":P3_0" function="internal">
        <lane id=":P3_0_0" index="0" speed="6.38" length="8.33" width="1.50" shape="570.24,37.67 569.81,35.32 568.83,33.61 567.31,32.52 565.26,32.06"/>
    </edge>
    <edge id=":P3_1" function="internal">
        <lane id=":P3_1_0" index="0" speed="6.16" length="10.36" width="1.50" shape="570.24,37.67 570.48,34.71 571.62,32.82 573.68,31.98 576.63,32.22"/>
    </edge>
    <edge id=":P3_2" function="internal">
        <lane id=":P3_2_0" index="0" speed="2.50" length="1.10" width="1.50" shape="570.24,37.67 570.58,37.09 570.94,36.88"/>
    </edge>
    <edge id=":P3_9" function="internal">
        <lane id=":P3_9_0" index="0" speed="2.50" length="1.10" width="1.50" shape="570.94,36.88 571.33,37.04 571.74,37.58"/>
    </edge>
    <edge id=":P3_3" function="internal">
        <lane id=":P3_3_0" index="0" speed="5.26" length="7.41" width="1.50" shape="576.31,33.68 574.19,33.51 572.73,34.11 571.91,35.46 571.74,37.58"/>
    </edge>
    <edge id=":P3_4" function="internal">
        <lane id=":P3_4_0" index="0" speed="13.90" length="11.18" width="1.50" shape="576.31,33.68 573.22,33.01 570.82,32.58 568.40,32.29 565.26,32.06"/>
    </edge>
    <edge id=":P3_5" function="internal">
        <lane id=":P3_5_0" index="0" speed="2.50" length="1.86" width="1.50" shape="576.31,33.68 575.84,33.19 575.74,32.78 576.00,32.46 576.32,32.34"/>
    </edge>
    <edge id=":P3_10" function="internal">
        <lane id=":P3_10_0" index="0" speed="2.50" length="0.33" width="1.50" shape="576.32,32.34 576.63,32.22"/>
    </edge>
    <edge id=":P3_6" function="internal">
        <lane id=":P3_6_0" index="0" speed="13.90" length="11.42" width="1.50" shape="565.35,30.56 568.53,30.80 571.03,31.10 573.51,31.54 576.63,32.22"/>
    </edge>
    <edge id=":P3_7" function="internal">
        <lane id=":P3_7_0" index="0" speed="7.14" length="4.78" width="1.50" shape="565.35,30.56 567.99,31.14 569.70,32.33"/>
    </edge>
    <edge id=":P3_8" function="internal">
        <lane id=":P3_8_0" index="0" speed="2.50" length="1.89" width="1.50" shape="565.35,30.56 565.89,30.97 566.05,31.36 565.84,31.72 565.52,31.91"/>
    </edge>
    <edge id=":P3_11" function="internal">
        <lane id=":P3_11_0" index="0" speed="7.14" length="5.76" width="1.50" shape="569.70,32.33 569.94,32.50 571.18,34.65 571.74,37.58"/>
    </edge>
    <edge id=":P3_12" function="internal">
        <lane id=":P3_12_0" index="0" speed="2.50" length="0.30" width="1.50" shape="565.52,31.91 565.26,32.06"/>
    </edge>
    <edge id=":P4_0" function="internal">
        <lane id=":P4_0_0" index="0" speed="2.50" length="2.19" width="1.50" shape="-0.09,250.68 -0.60,250.24 -0.75,249.84 -0.52,249.49 0.09,249.18"/>
    </edge>
    <edge id=":P5_0" function="internal">
        <lane id=":P5_0_0" index="0" speed="2.50" length="2.19" width="1.50" shape="820.03,297.76 820.58,298.16 820.75,298.54 820.54,298.91 819.97,299.26"/>
    </edge>
    <edge id=":P6_0" function="internal">
        <lane id=":P6_0_0" index="0" speed="2.50" length="2.19" width="1.50" shape="-0.03,0.75 -0.58,0.35 -0.75,-0.03 -0.55,-0.40 0.03,-0.75"/>
    </edge>
    <edge id=":P7_0" function="internal">
        <lane id=":P7_0_0" index="0" speed="2.50" length="2.19" width="1.50" shape="819.81,41.89 820.45,42.10 820.72,42.42 820.64,42.83 820.19,43.33"/>
    </edge>
    <edge id=":P8_0" function="internal">
        <lane id=":P8_0_0" index="0" speed="2.50" length="2.19" width="1.50" shape="348.57,499.84 348.32,500.47 348.00,500.73 347.59,500.63 347.11,500.16"/>
    </edge>

    <edge id="E0_P0_P4" from="P0" to="P4" priority="-1" shape="308.66,316.49 182.22,270.90 0.00,249.93">
        <lane id="E0_P0_P4_0" index="0" speed="13.90" length="309.36" width="1.50" shape="300.60,314.38 182.05,271.64 -0.09,250.68"/>
    </edge>
    <edge id="E0_P4_P0" from="P4" to="P0" priority="-1" shape="0.00,249.93 182.22,270.90 308.66,316.49">
        <lane id="E0_P4_P0_0" index="0" speed="13.90" length="309.71" width="1.50" shape="0.09,249.18 182.39,270.16 301.11,312.97"/>
    </edge>
    <edge id="E1_P0_P1" from="P0" to="P1" priority="-1">
        <lane id="E1_P0_P1_0" index="0" speed="13.90" length="256.83" width="1.50" shape="315.31,318.61 550.17,422.53"/>
    </edge>
    <edge id="E1_P1_P0" from="P1" to="P0" priority="-1">
        <lane id="E1_P1_P0_0" index="0" speed="13.90" length="256.83" width="1.50" shape="549.57,423.90 314.70,319.98"/>
    </edge>
    <edge id="E2_P1_P5" from="P1" to="P5" priority="-1" shape="555.41,425.67 728.86,294.33 820.00,298.51">
        <lane id="E2_P1_P5_0" index="0" speed="13.90" length="301.88" width="1.50" shape="560.91,420.57 728.62,293.57 820.03,297.76"/>
    </edge>
    <edge id="E2_P5_P1" from="P5" to="P1" priority="-1" shape="820.00,298.51 728.86,294.33 555.41,425.67">
        <lane id="E2_P5_P1_0" index="0" speed="13.90" length="300.80" width="1.50" shape="819.97,299.26 729.10,295.09 561.81,421.76"/>
    </edge>
    <edge id="E3_P2_P6" from="P2" to="P6" priority="-1">
        <lane id="E3_P2_P6_0" index="0" speed="13.90" length="204.46" width="1.50" shape="204.26,9.04 -0.03,0.75"/>
    </edge>
    <edge id="E3_P6_P2" from="P6" to="P2" priority="-1">
        <lane id="E3_P6_P2_0" index="0" speed="13.90" length="204.46" width="1.50" shape="0.03,-0.75 204.32,7.55"/>
    </edge>
    <edge id="E4_P2_P3" from="P2" to="P3" priority="-1" shape="209.57,8.51 364.43,18.88 570.62,31.64">
        <lane id="E4_P2_P3_0" index="0" speed="13.90" length="350.67" width="1.50" shape="215.40,8.15 364.48,18.13 565.35,30.56"/>
    </edge>
    <edge id="E4_P3_P2" from="P3" to="P2" priority="-1" shape="570.62,31.64 364.43,18.88 209.57,8.51">
        <lane id="E4_P3_P2_0" index="0" speed="13.90" length="350.67" width="1.50" shape="565.26,32.06 364.38,19.63 215.30,9.65"/>
    </edge>
    <edge id="E5_P3_P7" from="P3" to="P7" priority="-1" shape="570.62,31.64 728.86,67.01 820.00,42.61">
        <lane id="E5_P3_P7_0" index="0" speed="13.90" length="250.13" width="1.50" shape="576.63,32.22 728.84,66.24 819.81,41.89"/>
    </edge>
    <edge id="E5_P7_P3" from="P7" to="P3" priority="-1" shape="820.00,42.61 728.86,67.01 570.62,31.64">
        <lane id="E5_P7_P3_0" index="0" speed="13.90" length="250.87" width="1.50" shape="820.19,43.33 728.88,67.78 576.31,33.68"/>
    </edge>
    <edge id="E6_P0_P8" from="P0" to="P8" priority="-1">
        <lane id="E6_P0_P8_0" index="0" speed="13.90" length="180.71" width="1.50" shape="310.84,323.12 348.57,499.84"/>
    </edge>
    <edge id="E6_P8_P0" from="P8" to="P0" priority="-1">
        <lane id="E6_P8_P0_0" index="0" speed="13.90" length="180.71" width="1.50" shape="347.11,500.16 309.38,323.43"/>
    </edge>
    <edge id="E7_P0_P2" from="P0" to="P2" priority="-1" shape="308.66,316.49 229.98,189.03 209.57,8.51">
        <lane id="E7_P0_P2_0" index="0" speed="13.90" length="317.70" width="1.50" shape="303.66,309.82 229.25,189.28 209.48,14.35"/>
    </edge>
    <edge id="E7_P2_P0" from="P2" to="P0" priority="-1" shape="209.57,8.51 229.98,189.03 308.66,316.49">
        <lane id="E7_P2_P0_0" index="0" speed="13.90" length="317.03" width="1.50" shape="210.97,14.19 230.71,188.78 304.94,309.04"/>
    </edge>
    <edge id="E9_P1_P3" from="P1" to="P3" priority="-1" shape="555.41,425.67 580.32,189.03 570.62,31.64">
        <lane id="E9_P1_P3_0" index="0" speed="13.90" length="382.05" width="1.50" shape="555.45,418.17 579.57,189.01 570.24,37.67"/>
    </edge>
    <edge id="E9_P3_P1" from="P3" to="P1" priority="-1" shape="570.62,31.64 580.32,189.03 555.41,425.67">
        <lane id="E9_P3_P1_0" index="0" speed="13.90" length="382.30" width="1.50" shape="571.74,37.58 581.07,189.05 556.94,418.33"/>
    </edge>

    <tlLogic id="P0" type="static" programID="0" offset="0">
        <phase duration="42" state="rrrrGGggrrrrGGgg"/>
        <phase duration="3"  state="rrrryyyyrrrryyyy"/>
        <phase duration="42" state="GGggrrrrGGggrrrr"/>
        <phase duration="3"  state="yyyyrrrryyyyrrrr"/>
    </tlLogic>
    <tlLogic id="P1" type="static" programID="0" offset="0">
        <phase duration="42" state="GggrrrGGg"/>
        <phase duration="3"  state="yyyrrrGyy"/>
        <phase duration="42" state="rrrGGgGrr"/>
        <phase duration="3"  state="rrryyyGrr"/>
    </tlLogic>
    <tlLogic id="P2" type="static" programID="0" offset="0">
        <phase duration="42" state="rrrGGgGgg"/>
        <phase duration="3"  state="rrrGyyyyy"/>
        <phase duration="42" state="GGgGrrrrr"/>
        <phase duration="3"  state="yyyGrrrrr"/>
    </tlLogic>
    <tlLogic id="P3" type="static" programID="0" offset="0">
        <phase duration="42" state="rrrGGgGgg"/>
        <phase duration="3"  state="rrrGyyyyy"/>
        <phase duration="42" state="GGgGrrrrr"/>
        <phase duration="3"  state="yyyGrrrrr"/>
    </tlLogic>

    <junction id="P0" type="traffic_light" x="308.66" y="316.49" incLanes="E6_P8_P0_0 E1_P1_P0_0 E7_P2_P0_0 E0_P4_P0_0" intLanes=":P0_0_0 :P0_1_0 :P0_16_0 :P0_17_0 :P0_4_0 :P0_5_0 :P0_18_0 :P0_19_0 :P0_8_0 :P0_9_0 :P0_20_0 :P0_21_0 :P0_12_0 :P0_13_0 :P0_22_0 :P0_23_0" shape="308.64,323.59 311.58,322.96 314.40,320.67 315.61,317.93 305.58,308.64 303.03,310.22 301.36,312.26 300.35,315.09">
        <request index="0"  response="0000000000100000" foes="1000010000100000" cont="0"/>
        <request index="1"  response="0111000001100000" foes="0111110001100000" cont="0"/>
        <request index="2"  response="0110001101100000" foes="0110001111100000" cont="1"/>
        <request index="3"  response="0100001000010000" foes="0100001000010000" cont="1"/>
        <request index="4"  response="0000000000000000" foes="0100001000001000" cont="0"/>
        <request index="5"  response="0000010000000100" foes="1100011000000111" cont="0"/>
        <request index="6"  response="0011010000000100" foes="0111111000000110" cont="1"/>
        <request index="7"  response="0010000100000100" foes="0010000100000100" cont="1"/>
        <request index="8"  response="0010000000000000" foes="0010000010000100" cont="0"/>
        <request index="9"  response="0110000001110000" foes="0110000001111100" cont="0"/>
        <request index="10" response="0110000001100011" foes="1110000001100011" cont="1"/>
        <request index="11" response="0001000001000010" foes="0001000001000010" cont="1"/>
        <request index="12" response="0000000000000000" foes="0000100001000010" cont="0"/>
        <request index="13" response="0000010000000100" foes="0000011111000110" cont="0"/>
        <request index="14" response="0000010001110100" foes="0000011001111110" cont="1"/>
        <request index="15" response="0000010000100001" foes="0000010000100001" cont="1"/>
    </junction>
    <junction id="P1" type="traffic_light" x="555.41" y="425.67" incLanes="E2_P5_P1_0 E9_P3_P1_0 E1_P0_P1_0" intLanes=":P1_0_0 :P1_9_0 :P1_10_0 :P1_3_0 :P1_4_0 :P1_11_0 :P1_6_0 :P1_7_0 :P1_12_0" shape="562.26,422.36 560.45,419.97 557.68,418.41 554.70,418.09 550.48,421.85 549.26,424.59">
        <request index="0" response="000000000" foes="100010000" cont="0"/>
        <request index="1" response="011000000" foes="011110000" cont="1"/>
        <request index="2" response="010001000" foes="010001000" cont="1"/>
        <request index="3" response="010000000" foes="010000100" cont="0"/>
        <request index="4" response="010000011" foes="110000011" cont="0"/>
        <request index="5" response="001000010" foes="001000010" cont="1"/>
        <request index="6" response="000000000" foes="000100010" cont="0"/>
        <request index="7" response="000000000" foes="000011110" cont="0"/>
        <request index="8" response="000010001" foes="000010001" cont="1"/>
    </junction>
    <junction id="P2" type="traffic_light" x="209.57" y="8.51" incLanes="E7_P0_P2_0 E4_P3_P2_0 E3_P6_P2_0" intLanes=":P2_0_0 :P2_1_0 :P2_9_0 :P2_3_0 :P2_4_0 :P2_10_0 :P2_6_0 :P2_11_0 :P2_12_0" shape="208.73,14.44 211.71,14.10 215.25,10.39 215.45,7.40 204.35,6.80 204.23,9.79">
        <request index="0" response="000010000" foes="100010000" cont="0"/>
        <request index="1" response="011010000" foes="011110000" cont="0"/>
        <request index="2" response="010001000" foes="010001000" cont="1"/>
        <request index="3" response="000000000" foes="010000100" cont="0"/>
        <request index="4" response="000000000" foes="110000011" cont="0"/>
        <request index="5" response="001000010" foes="001000010" cont="1"/>
        <request index="6" response="000000000" foes="000100010" cont="0"/>
        <request index="7" response="000011000" foes="000011110" cont="1"/>
        <request index="8" response="000010001" foes="000010001" cont="1"/>
    </junction>
    <junction id="P3" type="traffic_light" x="570.62" y="31.64" incLanes="E9_P1_P3_0 E5_P7_P3_0 E4_P2_P3_0" intLanes=":P3_0_0 :P3_1_0 :P3_9_0 :P3_3_0 :P3_4_0 :P3_10_0 :P3_6_0 :P3_11_0 :P3_12_0" shape="569.49,37.72 572.49,37.53 576.14,34.41 576.80,31.48 565.40,29.81 565.21,32.81">
        <request index="0" response="000010000" foes="100010000" cont="0"/>
        <request index="1" response="011010000" foes="011110000" cont="0"/>
        <request index="2" response="010001000" foes="010001000" cont="1"/>
        <request index="3" response="000000000" foes="010000100" cont="0"/>
        <request index="4" response="000000000" foes="110000011" cont="0"/>
        <request index="5" response="001000010" foes="001000010" cont="1"/>
        <request index="6" response="000000000" foes="000100010" cont="0"/>
        <request index="7" response="000011000" foes="000011110" cont="1"/>
        <request index="8" response="000010001" foes="000010001" cont="1"/>
    </junction>
    <junction id="P4" type="priority" x="0.00" y="249.93" incLanes="E0_P0_P4_0" intLanes=":P4_0_0" shape="0.00,249.93 -0.17,251.42 -0.00,249.93">
        <request index="0" response="0" foes="0" cont="0"/>
    </junction>
    <junction id="P5" type="priority" x="820.00" y="298.51" incLanes="E2_P1_P5_0" intLanes=":P5_0_0" shape="820.00,298.51 820.07,297.01 820.00,298.51">
        <request index="0" response="0" foes="0" cont="0"/>
    </junction>
    <junction id="P6" type="priority" x="0.00" y="0.00" incLanes="E3_P2_P6_0" intLanes=":P6_0_0" shape="0.00,0.00 -0.06,1.50 0.00,0.00">
        <request index="0" response="0" foes="0" cont="0"/>
    </junction>
    <junction id="P7" type="priority" x="820.00" y="42.61" incLanes="E5_P3_P7_0" intLanes=":P7_0_0" shape="820.00,42.61 819.61,41.16 820.00,42.61">
        <request index="0" response="0" foes="0" cont="0"/>
    </junction>
    <junction id="P8" type="priority" x="347.84" y="500.00" incLanes="E6_P0_P8_0" intLanes=":P8_0_0" shape="347.84,500.00 349.31,499.69 347.84,500.00">
        <request index="0" response="0" foes="0" cont="0"/>
    </junction>

    <junction id=":P0_16_0" type="internal" x="312.45" y="317.76" incLanes=":P0_2_0 E7_P2_P0_0" intLanes=":P0_5_0 :P0_6_0 :P0_7_0 :P0_8_0 :P0_9_0 :P0_13_0 :P0_14_0"/>
    <junction id=":P0_17_0" type="internal" x="310.54" y="322.83" incLanes=":P0_3_0 E0_P4_P0_0 E1_P1_P0_0 E7_P2_P0_0" intLanes=":P0_4_0 :P0_9_0 :P0_14_0"/>
    <junction id=":P0_18_0" type="internal" x="308.82" y="316.04" incLanes=":P0_6_0 E0_P4_P0_0" intLanes=":P0_1_0 :P0_2_0 :P0_9_0 :P0_10_0 :P0_11_0 :P0_12_0 :P0_13_0"/>
    <junction id=":P0_19_0" type="internal" x="314.93" y="318.68" incLanes=":P0_7_0 E0_P4_P0_0 E6_P8_P0_0 E7_P2_P0_0" intLanes=":P0_2_0 :P0_8_0 :P0_13_0"/>
    <junction id=":P0_20_0" type="internal" x="306.62" y="314.47" incLanes=":P0_10_0 E6_P8_P0_0" intLanes=":P0_0_0 :P0_1_0 :P0_5_0 :P0_6_0 :P0_13_0 :P0_14_0 :P0_15_0"/>
    <junction id=":P0_21_0" type="internal" x="303.90" y="309.93" incLanes=":P0_11_0 E0_P4_P0_0 E1_P1_P0_0 E6_P8_P0_0" intLanes=":P0_1_0 :P0_6_0 :P0_12_0"/>
    <junction id=":P0_22_0" type="internal" x="307.74" y="317.12" incLanes=":P0_14_0 E1_P1_P0_0" intLanes=":P0_1_0 :P0_2_0 :P0_3_0 :P0_4_0 :P0_5_0 :P0_9_0 :P0_10_0"/>
    <junction id=":P0_23_0" type="internal" x="300.86" y="314.32" incLanes=":P0_15_0 E1_P1_P0_0 E6_P8_P0_0 E7_P2_P0_0" intLanes=":P0_0_0 :P0_5_0 :P0_10_0"/>
    <junction id=":P1_9_0" type="internal" x="556.48" y="423.51" incLanes=":P1_1_0 E1_P0_P1_0" intLanes=":P1_4_0 :P1_5_0 :P1_6_0 :P1_7_0"/>
    <junction id=":P1_10_0" type="internal" x="560.85" y="420.72" incLanes=":P1_2_0 E1_P0_P1_0 E9_P3_P1_0" intLanes=":P1_3_0 :P1_7_0"/>
    <junction id=":P1_11_0" type="internal" x="555.51" y="418.30" incLanes=":P1_5_0 E1_P0_P1_0 E2_P5_P1_0" intLanes=":P1_1_0 :P1_6_0"/>
    <junction id=":P1_12_0" type="internal" x="550.54" y="423.10" incLanes=":P1_8_0 E2_P5_P1_0 E9_P3_P1_0" intLanes=":P1_0_0 :P1_4_0"/>
    <junction id=":P2_9_0" type="internal" x="210.14" y="13.52" incLanes=":P2_2_0 E3_P6_P2_0 E4_P3_P2_0" intLanes=":P2_3_0 :P2_7_0"/>
    <junction id=":P2_10_0" type="internal" x="215.11" y="8.32" incLanes=":P2_5_0 E3_P6_P2_0 E7_P0_P2_0" intLanes=":P2_1_0 :P2_6_0"/>
    <junction id=":P2_11_0" type="internal" x="208.72" y="9.18" incLanes=":P2_7_0 E4_P3_P2_0" intLanes=":P2_1_0 :P2_2_0 :P2_3_0 :P2_4_0"/>
    <junction id=":P2_12_0" type="internal" x="204.51" y="8.89" incLanes=":P2_8_0 E4_P3_P2_0 E7_P0_P2_0" intLanes=":P2_0_0 :P2_4_0"/>
    <junction id=":P3_9_0" type="internal" x="570.94" y="36.88" incLanes=":P3_2_0 E4_P2_P3_0 E5_P7_P3_0" intLanes=":P3_3_0 :P3_7_0"/>
    <junction id=":P3_10_0" type="internal" x="576.32" y="32.34" incLanes=":P3_5_0 E4_P2_P3_0 E9_P1_P3_0" intLanes=":P3_1_0 :P3_6_0"/>
    <junction id=":P3_11_0" type="internal" x="569.70" y="32.33" incLanes=":P3_7_0 E5_P7_P3_0" intLanes=":P3_1_0 :P3_2_0 :P3_3_0 :P3_4_0"/>
    <junction id=":P3_12_0" type="internal" x="565.52" y="31.91" incLanes=":P3_8_0 E5_P7_P3_0 E9_P1_P3_0" intLanes=":P3_0_0 :P3_4_0"/>

    <connection from="E0_P0_P4" to="E0_P4_P0" fromLane="0" toLane="0" via=":P4_0_0" dir="t" state="M"/>
    <connection from="E0_P4_P0" to="E7_P0_P2" fromLane="0" toLane="0" via=":P0_12_0" tl="P0" linkIndex="12" dir="r" state="O"/>
    <connection from="E0_P4_P0" to="E1_P0_P1" fromLane="0" toLane="0" via=":P0_13_0" tl="P0" linkIndex="13" dir="s" state="O"/>
    <connection from="E0_P4_P0" to="E6_P0_P8" fromLane="0" toLane="0" via=":P0_14_0" tl="P0" linkIndex="14" dir="l" state="o"/>
    <connection from="E0_P4_P0" to="E0_P0_P4" fromLane="0" toLane="0" via=":P0_15_0" tl="P0" linkIndex="15" dir="t" state="o"/>
    <connection from="E1_P0_P1" to="E9_P1_P3" fromLane="0" toLane="0" via=":P1_6_0" tl="P1" linkIndex="6" dir="r" state="O"/>
    <connection from="E1_P0_P1" to="E2_P1_P5" fromLane="0" toLane="0" via=":P1_7_0" tl="P1" linkIndex="7" dir="R" state="O"/>
    <connection from="E1_P0_P1" to="E1_P1_P0" fromLane="0" toLane="0" via=":P1_8_0" tl="P1" linkIndex="8" dir="t" state="o"/>
    <connection from="E1_P1_P0" to="E6_P0_P8" fromLane="0" toLane="0" via=":P0_4_0" tl="P0" linkIndex="4" dir="r" state="O"/>
    <connection from="E1_P1_P0" to="E0_P0_P4" fromLane="0" toLane="0" via=":P0_5_0" tl="P0" linkIndex="5" dir="s" state="O"/>
    <connection from="E1_P1_P0" to="E7_P0_P2" fromLane="0" toLane="0" via=":P0_6_0" tl="P0" linkIndex="6" dir="L" state="o"/>