<nodes>
    <node id="P0" x="378.66" y="386.49" type="traffic_light"/>
    <node id="P1" x="625.41" y="495.67" type="traffic_light"/>
    <node id="P2" x="279.57" y="78.51" type="traffic_light"/>
    <node id="P3" x="640.62" y="101.64" type="traffic_light"/>
    <node id="P4" x="70.0" y="319.93" type="priority"/>
    <node id="P5" x="890.0" y="368.51" type="priority"/>
    <node id="P6" x="70.0" y="70.0" type="priority"/>
    <node id="P7" x="890.0" y="112.61" type="priority"/>
    <node id="P8" x="417.84" y="570.0" type="priority"/>
</nodes>