<?xml version="1.0" encoding="UTF-8"?>

<!-- generated on 2026-04-11T15:03:10.925750+05:30 by Eclipse SUMO netconvert 1.26.0
<netconvertConfiguration xmlns:xsi="http://www.w3.org/2001/XMLSchema-instance" xsi:noNamespaceSchemaLocation="http://sumo.dlr.de/xsd/netconvertConfiguration.xsd">

    <input>
        <node-files value="C:\Users\santhosh\OneDrive\Desktop\trafiic pro\web_runs\20260411_150310_705527\area.nod.xml"/>
        <edge-files value="C:\Users\santhosh\OneDrive\Desktop\trafiic pro\web_runs\20260411_150310_705527\area.edg.xml"/>
    </input>

    <output>
        <output-file value="C:\Users\santhosh\OneDrive\Desktop\trafiic pro\web_runs\20260411_150310_705527\area.net.xml"/>
    </output>

</netconvertConfiguration>
-->

<net version="1.20" junctionCornerDetail="5" limitTurnSpeed="5.50" xmlns:xsi="http://www.w3.org/2001/XMLSchema-instance" xsi:noNamespaceSchemaLocation="http://sumo.dlr.de/xsd/net_file.xsd">

    <location netOffset="0.00,0.00" convBoundary="0.00,0.00,900.00,701.00" origBoundary="0.00,0.00,900.00,701.00" projParameter="!"/>

    <edge id=":E0_0" function="internal">
        <lane id=":E0_0_0" index="0" speed="3.65" length="4.67" shape="900.00,126.83 901.20,127.63 901.60,128.43 901.20,129.23 900.00,130.03"/>
    </edge>
    <edge id=":E1_0" function="internal">
        <lane id=":E1_0_0" index="0" speed="3.65" length="4.67" shape="900.00,569.30 901.20,570.10 901.60,570.90 901.20,571.70 900.00,572.50"/>
    </edge>
    <edge id=":J0_0_0" function="internal">
        <lane id=":J0_0_0_0" index="0" speed="7.01" length="10.09" shape="150.32,109.46 147.72,109.84 145.79,111.02 144.54,113.02 143.96,115.81"/>
    </edge>
    <edge id=":J0_0_1" function="internal">
        <lane id=":J0_0_1_0" index="0" speed="13.90" length="21.23" shape="150.32,109.46 129.10,109.38"/>
        <lane id=":J0_0_1_1" index="1" speed="13.90" length="21.23" shape="150.34,106.26 129.10,106.18"/>
    </edge>
    <edge id=":J0_0_3" function="internal">
        <lane id=":J0_0_3_0" index="0" speed="9.28" length="4.87" shape="150.34,106.26 145.52,105.53"/>
    </edge>
    <edge id=":J0_0_4" function="internal">
        <lane id=":J0_0_4_0" index="0" speed="3.65" length="1.44" shape="150.34,106.26 149.15,105.45"/>
    </edge>
    <edge id=":J0_0_20" function="internal">
        <lane id=":J0_0_20_0" index="0" speed="9.28" length="14.46" shape="145.52,105.53 145.12,105.47 141.38,103.19 139.15,99.43 138.40,94.18"/>
    </edge>
    <edge id=":J0_0_21" function="internal">
        <lane id=":J0_0_21_0" index="0" speed="3.65" length="3.23" shape="149.15,105.45 148.75,104.65 149.16,103.85 150.36,103.06"/>
    </edge>
    <edge id=":J0_0_5" function="internal">
        <lane id=":J0_0_5_0" index="0" speed="6.54" length="9.07" shape="144.80,94.18 145.15,96.65 146.20,98.42 147.94,99.49 150.39,99.86"/>
    </edge>
    <edge id=":J0_0_6" function="internal">
        <lane id=":J0_0_6_0" index="0" speed="13.90" length="21.53" shape="144.80,94.18 143.96,115.81"/>
        <lane id=":J0_0_6_1" index="1" speed="13.90" length="21.53" shape="141.60,94.18 140.77,115.57"/>
    </edge>
    <edge id=":J0_0_8" function="internal">
        <lane id=":J0_0_8_0" index="0" speed="9.35" length="5.41" shape="141.60,94.18 140.82,99.43 140.76,99.52"/>
    </edge>
    <edge id=":J0_0_9" function="internal">
        <lane id=":J0_0_9_0" index="0" speed="3.65" length="1.44" shape="141.60,94.18 140.80,95.38"/>
    </edge>
    <edge id=":J0_0_22" function="internal">
        <lane id=":J0_0_22_0" index="0" speed="9.35" length="14.35" shape="140.76,99.52 138.47,103.18 134.57,105.43 129.10,106.18"/>
    </edge>
    <edge id=":J0_0_23" function="internal">
        <lane id=":J0_0_23_0" index="0" speed="3.65" length="3.23" shape="140.80,95.38 140.00,95.78 139.20,95.38 138.40,94.18"/>
    </edge>
    <edge id=":J0_0_10" function="internal">
        <lane id=":J0_0_10_0" index="0" speed="6.64" length="9.44" shape="129.10,99.78 131.77,99.43 133.67,98.38 134.82,96.63 135.20,94.18"/>
    </edge>
    <edge id=":J0_0_11" function="internal">
        <lane id=":J0_0_11_0" index="0" speed="13.90" length="21.28" shape="129.10,99.78 150.39,99.86"/>
        <lane id=":J0_0_11_1" index="1" speed="13.90" length="21.28" shape="129.10,102.98 150.36,103.06"/>
    </edge>
    <edge id=":J0_0_13" function="internal">
        <lane id=":J0_0_13_0" index="0" speed="9.14" length="5.10" shape="129.10,102.98 134.15,103.71"/>
    </edge>
    <edge id=":J0_0_14" function="internal">
        <lane id=":J0_0_14_0" index="0" speed="3.65" length="1.44" shape="129.10,102.98 130.30,103.78"/>
    </edge>
    <edge id=":J0_0_24" function="internal">
        <lane id=":J0_0_24_0" index="0" speed="9.14" length="14.83" shape="134.15,103.71 134.56,103.77 138.33,106.13 140.40,110.06 140.77,115.57"/>
    </edge>
    <edge id=":J0_0_25" function="internal">
        <lane id=":J0_0_25_0" index="0" speed="3.65" length="3.23" shape="130.30,103.78 130.70,104.58 130.30,105.38 129.10,106.18"/>
    </edge>
    <edge id=":J0_0_15" function="internal">
        <lane id=":J0_0_15_0" index="0" speed="6.35" length="9.04" shape="134.39,115.09 134.22,112.59 133.28,110.81 131.58,109.74 129.10,109.38"/>
    </edge>
    <edge id=":J0_0_16" function="internal">
        <lane id=":J0_0_16_0" index="0" speed="13.90" length="21.05" shape="134.39,115.09 135.20,94.18"/>
        <lane id=":J0_0_16_1" index="1" speed="13.90" length="21.05" shape="137.58,115.33 138.40,94.18"/>
    </edge>
    <edge id=":J0_0_18" function="internal">
        <lane id=":J0_0_18_0" index="0" speed="9.63" length="4.18" shape="137.58,115.33 138.45,111.24"/>
    </edge>
    <edge id=":J0_0_19" function="internal">
        <lane id=":J0_0_19_0" index="0" speed="3.65" length="1.44" shape="137.58,115.33 138.47,114.19"/>
    </edge>
    <edge id=":J0_0_26" function="internal">
        <lane id=":J0_0_26_0" index="0" speed="9.63" length="15.74" shape="138.45,111.24 138.73,109.93 141.25,106.08 145.12,103.79 150.36,103.06"/>
    </edge>
    <edge id=":J0_0_27" function="internal">
        <lane id=":J0_0_27_0" index="0" speed="3.65" length="3.23" shape="138.47,114.19 139.30,113.86 140.07,114.31 140.77,115.57"/>
    </edge>
    <edge id=":J0_1_0" function="internal">
        <lane id=":J0_1_0_0" index="0" speed="6.40" length="9.04" shape="463.47,112.46 460.98,112.64 459.19,113.59 458.09,115.29 457.69,117.75"/>
    </edge>
    <edge id=":J0_1_1" function="internal">
        <lane id=":J0_1_1_0" index="0" speed="13.90" length="21.00" shape="463.47,112.46 442.59,111.65"/>
        <lane id=":J0_1_1_1" index="1" speed="13.90" length="21.00" shape="463.69,109.27 442.61,108.45"/>
    </edge>
    <edge id=":J0_1_3" function="internal">
        <lane id=":J0_1_3_0" index="0" speed="9.62" length="4.26" shape="463.69,109.27 459.52,108.39"/>
    </edge>
    <edge id=":J0_1_4" function="internal">
        <lane id=":J0_1_4_0" index="0" speed="3.65" length="1.44" shape="463.69,109.27 462.55,108.39"/>
    </edge>
    <edge id=":J0_1_20" function="internal">
        <lane id=":J0_1_20_0" index="0" speed="9.62" length="15.59" shape="459.52,108.39 458.36,108.15 454.55,105.65 452.26,101.76 451.50,96.48"/>
    </edge>
    <edge id=":J0_1_21" function="internal">
        <lane id=":J0_1_21_0" index="0" speed="3.65" length="3.23" shape="462.55,108.39 462.20,107.56 462.66,106.79 463.91,106.08"/>
    </edge>
    <edge id=":J0_1_5" function="internal">
        <lane id=":J0_1_5_0" index="0" speed="7.00" length="10.04" shape="457.90,96.48 458.29,99.12 459.46,101.07 461.41,102.32 464.13,102.88"/>
    </edge>
    <edge id=":J0_1_6" function="internal">
        <lane id=":J0_1_6_0" index="0" speed="13.90" length="21.24" shape="457.90,96.48 457.69,117.75"/>
        <lane id=":J0_1_6_1" index="1" speed="13.90" length="21.24" shape="454.70,96.48 454.49,117.69"/>
    </edge>
    <edge id=":J0_1_8" function="internal">
        <lane id=":J0_1_8_0" index="0" speed="9.25" length="5.20" shape="454.70,96.48 453.96,101.63"/>
    </edge>
    <edge id=":J0_1_9" function="internal">
        <lane id=":J0_1_9_0" index="0" speed="3.65" length="1.44" shape="454.70,96.48 453.90,97.68"/>
    </edge>
    <edge id=":J0_1_22" function="internal">
        <lane id=":J0_1_22_0" index="0" speed="9.25" length="14.24" shape="453.96,101.63 453.94,101.75 451.68,105.50 447.90,107.74 442.61,108.45"/>
    </edge>
    <edge id=":J0_1_23" function="internal">
        <lane id=":J0_1_23_0" index="0" speed="3.65" length="3.23" shape="453.90,97.68 453.10,98.08 452.30,97.68 451.50,96.48"/>
    </edge>
    <edge id=":J0_1_10" function="internal">
        <lane id=":J0_1_10_0" index="0" speed="6.50" length="9.06" shape="442.66,102.05 445.13,101.72 446.89,100.68 447.95,98.93 448.30,96.48"/>
    </edge>
    <edge id=":J0_1_11" function="internal">
        <lane id=":J0_1_11_0" index="0" speed="13.90" length="21.39" shape="442.66,102.05 464.13,102.88"/>
        <lane id=":J0_1_11_1" index="1" speed="13.90" length="21.39" shape="442.64,105.25 463.91,106.08"/>
    </edge>
    <edge id=":J0_1_13" function="internal">
        <lane id=":J0_1_13_0" index="0" speed="9.28" length="5.34" shape="442.64,105.25 447.91,106.06"/>
    </edge>
    <edge id=":J0_1_14" function="internal">
        <lane id=":J0_1_14_0" index="0" speed="3.65" length="1.44" shape="442.64,105.25 443.83,106.06"/>
    </edge>
    <edge id=":J0_1_24" function="internal">
        <lane id=":J0_1_24_0" index="0" speed="9.28" length="14.31" shape="447.91,106.06 451.65,108.41 453.84,112.28 454.49,117.69"/>
    </edge>
    <edge id=":J0_1_25" function="internal">
        <lane id=":J0_1_25_0" index="0" speed="3.65" length="3.23" shape="443.83,106.06 444.22,106.86 443.82,107.66 442.61,108.45"/>
    </edge>
    <edge id=":J0_1_15" function="internal">
        <lane id=":J0_1_15_0" index="0" speed="6.55" length="9.23" shape="448.09,117.56 447.79,114.99 446.77,113.15 445.04,112.04 442.59,111.65"/>
    </edge>
    <edge id=":J0_1_16" function="internal">
        <lane id=":J0_1_16_0" index="0" speed="13.90" length="21.11" shape="448.09,117.56 448.30,96.48"/>
        <lane id=":J0_1_16_1" index="1" speed="13.90" length="21.11" shape="451.29,117.62 451.50,96.48"/>
    </edge>
    <edge id=":J0_1_18" function="internal">
        <lane id=":J0_1_18_0" index="0" speed="9.18" length="4.68" shape="451.29,117.62 452.05,113.00"/>
    </edge>
    <edge id=":J0_1_19" function="internal">
        <lane id=":J0_1_19_0" index="0" speed="3.65" length="1.44" shape="451.29,117.62 452.11,116.44"/>
    </edge>
    <edge id=":J0_1_26" function="internal">
        <lane id=":J0_1_26_0" index="0" speed="9.18" length="15.05" shape="452.05,113.00 452.17,112.25 454.57,108.53 458.48,106.48 463.91,106.08"/>
    </edge>
    <edge id=":J0_1_27" function="internal">
        <lane id=":J0_1_27_0" index="0" speed="3.65" length="3.23" shape="452.11,116.44 452.92,116.05 453.71,116.47 454.49,117.69"/>
    </edge>
    <edge id=":J0_2_0" function="internal">
        <lane id=":J0_2_0_0" index="0" speed="7.68" length="11.45" shape="759.52,139.78 758.84,136.76 757.39,134.53 755.17,133.10 752.19,132.47"/>
    </edge>
    <edge id=":J0_2_1" function="internal">
        <lane id=":J0_2_1_0" index="0" speed="13.90" length="22.10" shape="759.52,139.78 758.55,117.57"/>
        <lane id=":J0_2_1_1" index="1" speed="13.90" length="22.10" shape="762.71,139.51 761.75,117.57"/>
    </edge>
    <edge id=":J0_2_3" function="internal">
        <lane id=":J0_2_3_0" index="0" speed="9.13" length="5.70" shape="762.71,139.51 763.02,133.96 763.08,133.83"/>
    </edge>
    <edge id=":J0_2_4" function="internal">
        <lane id=":J0_2_4_0" index="0" speed="3.65" length="1.44" shape="762.71,139.51 763.40,138.24"/>
    </edge>
    <edge id=":J0_2_20" function="internal">
        <lane id=":J0_2_20_0" index="0" speed="9.13" length="14.33" shape="763.08,133.83 765.06,130.00 768.83,127.62 774.33,126.83"/>
    </edge>
    <edge id=":J0_2_21" function="internal">
        <lane id=":J0_2_21_0" index="0" speed="3.65" length="3.23" shape="763.40,138.24 764.16,137.77 764.99,138.10 765.89,139.23"/>
    </edge>
    <edge id=":J0_2_5" function="internal">
        <lane id=":J0_2_5_0" index="0" speed="6.33" length="9.04" shape="774.33,133.23 771.85,133.59 770.15,134.66 769.22,136.45 769.08,138.95"/>
    </edge>
    <edge id=":J0_2_6" function="internal">
        <lane id=":J0_2_6_0" index="0" speed="13.90" length="22.05" shape="774.33,133.23 752.19,132.47"/>
        <lane id=":J0_2_6_1" index="1" speed="13.90" length="22.05" shape="774.33,130.03 752.41,129.28"/>
    </edge>
    <edge id=":J0_2_8" function="internal">
        <lane id=":J0_2_8_0" index="0" speed="9.45" length="5.56" shape="774.33,130.03 768.83,129.25"/>
    </edge>
    <edge id=":J0_2_9" function="internal">
        <lane id=":J0_2_9_0" index="0" speed="3.65" length="1.44" shape="774.33,130.03 773.13,129.23"/>
    </edge>
    <edge id=":J0_2_22" function="internal">
        <lane id=":J0_2_22_0" index="0" speed="9.45" length="14.63" shape="768.83,129.25 764.89,126.92 762.54,123.02 761.75,117.57"/>
    </edge>
    <edge id=":J0_2_23" function="internal">
        <lane id=":J0_2_23_0" index="0" speed="3.65" length="3.23" shape="773.13,129.23 772.73,128.43 773.13,127.63 774.33,126.83"/>
    </edge>
    <edge id=":J0_2_10" function="internal">
        <lane id=":J0_2_10_0" index="0" speed="6.77" length="9.87" shape="768.15,117.57 768.54,120.22 769.69,122.12 771.63,123.25 774.33,123.63"/>
    </edge>
    <edge id=":J0_2_11" function="internal">
        <lane id=":J0_2_11_0" index="0" speed="13.90" length="21.54" shape="768.15,117.57 769.08,138.95"/>
        <lane id=":J0_2_11_1" index="1" speed="13.90" length="21.54" shape="764.95,117.57 765.89,139.23"/>
    </edge>
    <edge id=":J0_2_13" function="internal">
        <lane id=":J0_2_13_0" index="0" speed="9.15" length="3.84" shape="764.95,117.57 764.40,121.37"/>
    </edge>
    <edge id=":J0_2_14" function="internal">
        <lane id=":J0_2_14_0" index="0" speed="3.65" length="1.44" shape="764.95,117.57 764.15,118.77"/>
    </edge>
    <edge id=":J0_2_24" function="internal">
        <lane id=":J0_2_24_0" index="0" speed="9.15" length="16.04" shape="764.40,121.37 764.17,123.02 761.81,126.78 757.89,128.87 752.41,129.28"/>
    </edge>
    <edge id=":J0_2_25" function="internal">
        <lane id=":J0_2_25_0" index="0" speed="3.65" length="3.23" shape="764.15,118.77 763.35,119.17 762.55,118.77 761.75,117.57"/>
    </edge>
    <edge id=":J0_2_15" function="internal">
        <lane id=":J0_2_15_0" index="0" speed="6.36" length="9.04" shape="752.85,122.89 755.34,122.71 757.12,121.76 758.19,120.05 758.55,117.57"/>
    </edge>
    <edge id=":J0_2_16" function="internal">
        <lane id=":J0_2_16_0" index="0" speed="13.90" length="21.60" shape="752.85,122.89 774.33,123.63"/>
        <lane id=":J0_2_16_1" index="1" speed="13.90" length="21.60" shape="752.63,126.08 774.33,126.83"/>
    </edge>
    <edge id=":J0_2_18" function="internal">
        <lane id=":J0_2_18_0" index="0" speed="10.14" length="4.13" shape="752.63,126.08 756.67,126.93"/>
    </edge>
    <edge id=":J0_2_19" function="internal">
        <lane id=":J0_2_19_0" index="0" speed="3.65" length="1.44" shape="752.63,126.08 753.77,126.96"/>
    </edge>
    <edge id=":J0_2_26" function="internal">
        <lane id=":J0_2_26_0" index="0" speed="10.14" length="16.52" shape="756.67,126.93 758.03,127.22 762.04,129.79 764.66,133.80 765.89,139.23"/>
    </edge>
    <edge id=":J0_2_27" function="internal">
        <lane id=":J0_2_27_0" index="0" speed="3.65" length="3.23" shape="753.77,126.96 754.11,127.79 753.66,128.56 752.41,129.28"/>
    </edge>
    <edge id=":J1_0_0" function="internal">
        <lane id=":J1_0_0_0" index="0" speed="6.51" length="9.03" shape="98.55,599.83 98.20,597.38 97.15,595.63 95.40,594.58 92.95,594.23"/>
    </edge>
    <edge id=":J1_0_1" function="internal">
        <lane id=":J1_0_1_0" index="0" speed="13.90" length="21.68" shape="98.55,599.83 99.40,578.04"/>
        <lane id=":J1_0_1_1" index="1" speed="13.90" length="21.68" shape="101.75,599.83 102.59,578.29"/>
    </edge>
    <edge id=":J1_0_3" function="internal">
        <lane id=":J1_0_3_0" index="0" speed="9.47" length="5.31" shape="101.75,599.83 102.54,594.58"/>
    </edge>
    <edge id=":J1_0_4" function="internal">
        <lane id=":J1_0_4_0" index="0" speed="3.65" length="1.44" shape="101.75,599.83 102.55,598.63"/>
    </edge>
    <edge id=":J1_0_20" function="internal">
        <lane id=":J1_0_20_0" index="0" speed="9.47" length="14.64" shape="102.54,594.58 104.90,590.79 108.85,588.46 114.37,587.59"/>
    </edge>
    <edge id=":J1_0_21" function="internal">
        <lane id=":J1_0_21_0" index="0" speed="3.65" length="3.23" shape="102.55,598.63 103.35,598.23 104.15,598.63 104.95,599.83"/>
    </edge>
    <edge id=":J1_0_5" function="internal">
        <lane id=":J1_0_5_0" index="0" speed="6.80" length="9.79" shape="114.51,593.99 111.73,594.40 109.74,595.52 108.55,597.33 108.15,599.83"/>
    </edge>
    <edge id=":J1_0_6" function="internal">
        <lane id=":J1_0_6_0" index="0" speed="13.90" length="21.52" shape="114.51,593.99 92.95,594.23"/>
        <lane id=":J1_0_6_1" index="1" speed="13.90" length="21.52" shape="114.44,590.79 92.95,591.03"/>
    </edge>
    <edge id=":J1_0_8" function="internal">
        <lane id=":J1_0_8_0" index="0" speed="9.11" length="5.35" shape="114.44,590.79 109.12,590.14"/>
    </edge>
    <edge id=":J1_0_9" function="internal">
        <lane id=":J1_0_9_0" index="0" speed="3.65" length="1.44" shape="114.44,590.79 113.22,590.01"/>
    </edge>
    <edge id=":J1_0_22" function="internal">
        <lane id=":J1_0_22_0" index="0" speed="9.11" length="14.76" shape="109.12,590.14 108.89,590.11 105.07,587.80 102.97,583.86 102.59,578.29"/>
    </edge>
    <edge id=":J1_0_23" function="internal">
        <lane id=":J1_0_23_0" index="0" speed="3.65" length="3.23" shape="113.22,590.01 112.80,589.22 113.19,588.41 114.37,587.59"/>
    </edge>
    <edge id=":J1_0_10" function="internal">
        <lane id=":J1_0_10_0" index="0" speed="6.31" length="9.04" shape="108.97,578.77 109.14,581.27 110.08,583.05 111.80,584.09 114.30,584.39"/>
    </edge>
    <edge id=":J1_0_11" function="internal">
        <lane id=":J1_0_11_0" index="0" speed="13.90" length="21.20" shape="108.97,578.77 108.15,599.83"/>
        <lane id=":J1_0_11_1" index="1" speed="13.90" length="21.20" shape="105.78,578.53 104.95,599.83"/>
    </edge>
    <edge id=":J1_0_13" function="internal">
        <lane id=":J1_0_13_0" index="0" speed="9.70" length="4.22" shape="105.78,578.53 104.91,582.65"/>
    </edge>
    <edge id=":J1_0_14" function="internal">
        <lane id=":J1_0_14_0" index="0" speed="3.65" length="1.44" shape="105.78,578.53 104.89,579.66"/>
    </edge>
    <edge id=":J1_0_24" function="internal">
        <lane id=":J1_0_24_0" index="0" speed="9.70" length="15.89" shape="104.91,582.65 104.62,584.00 102.10,587.90 98.21,590.25 92.95,591.03"/>
    </edge>
    <edge id=":J1_0_25" function="internal">
        <lane id=":J1_0_25_0" index="0" speed="3.65" length="3.23" shape="104.89,579.66 104.06,580.00 103.30,579.54 102.59,578.29"/>
    </edge>
    <edge id=":J1_0_15" function="internal">
        <lane id=":J1_0_15_0" index="0" speed="7.11" length="10.34" shape="92.95,584.63 95.58,584.22 97.54,582.98 98.81,580.93 99.40,578.04"/>
    </edge>
    <edge id=":J1_0_16" function="internal">
        <lane id=":J1_0_16_0" index="0" speed="13.90" length="21.38" shape="92.95,584.63 114.30,584.39"/>
        <lane id=":J1_0_16_1" index="1" speed="13.90" length="21.38" shape="92.95,587.83 114.37,587.59"/>
    </edge>
    <edge id=":J1_0_18" function="internal">
        <lane id=":J1_0_18_0" index="0" speed="9.26" length="4.66" shape="92.95,587.83 97.56,588.49"/>
    </edge>
    <edge id=":J1_0_19" function="internal">
        <lane id=":J1_0_19_0" index="0" speed="3.65" length="1.44" shape="92.95,587.83 94.15,588.63"/>
    </edge>
    <edge id=":J1_0_26" function="internal">
        <lane id=":J1_0_26_0" index="0" speed="9.26" length="14.70" shape="97.56,588.49 98.20,588.58 101.95,590.83 104.20,594.58 104.95,599.83"/>
    </edge>
    <edge id=":J1_0_27" function="internal">
        <lane id=":J1_0_27_0" index="0" speed="3.65" length="3.23" shape="94.15,588.63 94.55,589.43 94.15,590.23 92.95,591.03"/>
    </edge>
    <edge id=":J1_1_0" function="internal">
        <lane id=":J1_1_0_0" index="0" speed="6.46" length="9.03" shape="439.05,592.51 438.70,590.05 437.64,588.32 435.88,587.30 433.42,587.00"/>
    </edge>
    <edge id=":J1_1_1" function="internal">
        <lane id=":J1_1_1_0" index="0" speed="13.90" length="21.33" shape="439.05,592.51 439.26,571.15"/>
        <lane id=":J1_1_1_1" index="1" speed="13.90" length="21.33" shape="442.25,592.51 442.46,571.21"/>
    </edge>
    <edge id=":J1_1_3" function="internal">
        <lane id=":J1_1_3_0" index="0" speed="9.47" length="5.22" shape="442.25,592.51 443.00,587.34"/>
    </edge>
    <edge id=":J1_1_4" function="internal">
        <lane id=":J1_1_4_0" index="0" speed="3.65" length="1.44" shape="442.25,592.51 443.05,591.31"/>
    </edge>
    <edge id=":J1_1_20" function="internal">
        <lane id=":J1_1_20_0" index="0" speed="9.47" length="14.60" shape="443.00,587.34 443.02,587.20 445.32,583.35 449.16,580.96 454.53,580.04"/>
    </edge>
    <edge id=":J1_1_21" function="internal">
        <lane id=":J1_1_21_0" index="0" speed="3.65" length="3.23" shape="443.05,591.31 443.85,590.91 444.65,591.31 445.45,592.51"/>
    </edge>
    <edge id=":J1_1_5" function="internal">
        <lane id=":J1_1_5_0" index="0" speed="6.80" length="9.73" shape="454.72,586.44 452.07,586.89 450.17,588.05 449.03,589.92 448.65,592.51"/>
    </edge>
    <edge id=":J1_1_6" function="internal">
        <lane id=":J1_1_6_0" index="0" speed="13.90" length="21.30" shape="454.72,586.44 433.42,587.00"/>
        <lane id=":J1_1_6_1" index="1" speed="13.90" length="21.30" shape="454.63,583.24 433.35,583.80"/>
    </edge>
    <edge id=":J1_1_8" function="internal">
        <lane id=":J1_1_8_0" index="0" speed="9.18" length="5.14" shape="454.63,583.24 449.52,582.66"/>
    </edge>
    <edge id=":J1_1_9" function="internal">
        <lane id=":J1_1_9_0" index="0" speed="3.65" length="1.44" shape="454.63,583.24 453.40,582.47"/>
    </edge>
    <edge id=":J1_1_22" function="internal">
        <lane id=":J1_1_22_0" index="0" speed="9.18" length="14.60" shape="449.52,582.66 449.21,582.63 445.38,580.42 443.13,576.62 442.46,571.21"/>
    </edge>
    <edge id=":J1_1_23" function="internal">
        <lane id=":J1_1_23_0" index="0" speed="3.65" length="3.23" shape="453.40,582.47 452.98,581.69 453.35,580.88 454.53,580.04"/>
    </edge>
    <edge id=":J1_1_10" function="internal">
        <lane id=":J1_1_10_0" index="0" speed="6.40" length="9.04" shape="448.86,571.33 449.16,573.81 450.20,575.55 451.95,576.56 454.43,576.84"/>
    </edge>
    <edge id=":J1_1_11" function="internal">
        <lane id=":J1_1_11_0" index="0" speed="13.90" length="21.21" shape="448.86,571.33 448.65,592.51"/>
        <lane id=":J1_1_11_1" index="1" speed="13.90" length="21.21" shape="445.66,571.27 445.45,592.51"/>
    </edge>
    <edge id=":J1_1_13" function="internal">
        <lane id=":J1_1_13_0" index="0" speed="9.52" length="4.80" shape="445.66,571.27 444.90,576.01"/>
    </edge>
    <edge id=":J1_1_14" function="internal">
        <lane id=":J1_1_14_0" index="0" speed="3.65" length="1.44" shape="445.66,571.27 444.84,572.46"/>
    </edge>
    <edge id=":J1_1_24" function="internal">
        <lane id=":J1_1_24_0" index="0" speed="9.52" length="15.05" shape="444.90,576.01 444.80,576.65 442.46,580.54 438.64,582.92 433.35,583.80"/>
    </edge>
    <edge id=":J1_1_25" function="internal">
        <lane id=":J1_1_25_0" index="0" speed="3.65" length="3.23" shape="444.84,572.46 444.03,572.84 443.24,572.43 442.46,571.21"/>
    </edge>
    <edge id=":J1_1_15" function="internal">
        <lane id=":J1_1_15_0" index="0" speed="6.86" length="9.84" shape="433.21,577.40 435.81,576.96 437.69,575.77 438.84,573.84 439.26,571.15"/>
    </edge>
    <edge id=":J1_1_16" function="internal">
        <lane id=":J1_1_16_0" index="0" speed="13.90" length="21.24" shape="433.21,577.40 454.43,576.84"/>
        <lane id=":J1_1_16_1" index="1" speed="13.90" length="21.24" shape="433.28,580.60 454.53,580.04"/>
    </edge>
    <edge id=":J1_1_18" function="internal">
        <lane id=":J1_1_18_0" index="0" speed="9.22" length="4.85" shape="433.28,580.60 438.09,581.18"/>
    </edge>
    <edge id=":J1_1_19" function="internal">
        <lane id=":J1_1_19_0" index="0" speed="3.65" length="1.44" shape="433.28,580.60 434.49,581.37"/>
    </edge>
    <edge id=":J1_1_26" function="internal">
        <lane id=":J1_1_26_0" index="0" speed="9.22" length="14.67" shape="438.09,581.18 438.60,581.25 442.41,583.45 444.69,587.20 445.45,592.51"/>
    </edge>
    <edge id=":J1_1_27" function="internal">
        <lane id=":J1_1_27_0" index="0" speed="3.65" length="3.23" shape="434.49,581.37 434.91,582.17 434.53,582.97 433.35,583.80"/>
    </edge>
    <edge id=":J1_2_0" function="internal">
        <lane id=":J1_2_0_0" index="0" speed="6.48" length="9.17" shape="796.97,581.50 796.61,579.04 795.52,577.31 793.70,576.31 791.16,576.03"/>
    </edge>
    <edge id=":J1_2_1" function="internal">
        <lane id=":J1_2_1_0" index="0" speed="13.90" length="21.07" shape="796.97,581.50 796.06,560.59"/>
        <lane id=":J1_2_1_1" index="1" speed="13.90" length="21.07" shape="800.17,581.50 799.24,560.31"/>
    </edge>
    <edge id=":J1_2_3" function="internal">
        <lane id=":J1_2_3_0" index="0" speed="9.30" length="3.91" shape="800.17,581.50 800.71,577.63"/>
    </edge>
    <edge id=":J1_2_4" function="internal">
        <lane id=":J1_2_4_0" index="0" speed="3.65" length="1.44" shape="800.17,581.50 800.97,580.30"/>
    </edge>
    <edge id=":J1_2_20" function="internal">
        <lane id=":J1_2_20_0" index="0" speed="9.30" length="15.61" shape="800.71,577.63 800.92,576.16 803.17,572.35 806.92,570.06 812.17,569.30"/>
    </edge>
    <edge id=":J1_2_21" function="internal">
        <lane id=":J1_2_21_0" index="0" speed="3.65" length="3.23" shape="800.97,580.30 801.77,579.90 802.57,580.30 803.37,581.50"/>
    </edge>
    <edge id=":J1_2_5" function="internal">
        <lane id=":J1_2_5_0" index="0" speed="6.56" length="9.19" shape="812.17,575.70 809.72,576.06 807.97,577.15 806.92,578.96 806.57,581.50"/>
    </edge>
    <edge id=":J1_2_6" function="internal">
        <lane id=":J1_2_6_0" index="0" speed="13.90" length="21.07" shape="812.17,575.70 791.16,576.03"/>
        <lane id=":J1_2_6_1" index="1" speed="13.90" length="21.07" shape="812.17,572.50 791.06,572.83"/>
    </edge>
    <edge id=":J1_2_8" function="internal">
        <lane id=":J1_2_8_0" index="0" speed="9.69" length="4.47" shape="812.17,572.50 807.74,571.86"/>
    </edge>
    <edge id=":J1_2_9" function="internal">
        <lane id=":J1_2_9_0" index="0" speed="3.65" length="1.44" shape="812.17,572.50 810.97,571.70"/>
    </edge>
    <edge id=":J1_2_22" function="internal">
        <lane id=":J1_2_22_0" index="0" speed="9.69" length="15.42" shape="807.74,571.86 806.91,571.74 803.01,569.45 800.45,565.64 799.24,560.31"/>
    </edge>
    <edge id=":J1_2_23" function="internal">
        <lane id=":J1_2_23_0" index="0" speed="3.65" length="3.23" shape="810.97,571.70 810.57,570.90 810.97,570.10 812.17,569.30"/>
    </edge>
    <edge id=":J1_2_10" function="internal">
        <lane id=":J1_2_10_0" index="0" speed="7.09" length="10.21" shape="805.62,559.76 806.24,562.53 807.53,564.51 809.51,565.70 812.17,566.10"/>
    </edge>
    <edge id=":J1_2_11" function="internal">
        <lane id=":J1_2_11_0" index="0" speed="13.90" length="21.62" shape="805.62,559.76 806.57,581.50"/>
        <lane id=":J1_2_11_1" index="1" speed="13.90" length="21.62" shape="802.43,560.04 803.37,581.50"/>
    </edge>
    <edge id=":J1_2_13" function="internal">
        <lane id=":J1_2_13_0" index="0" speed="9.17" length="5.63" shape="802.43,560.04 802.13,565.49 802.05,565.64"/>
    </edge>
    <edge id=":J1_2_14" function="internal">
        <lane id=":J1_2_14_0" index="0" speed="3.65" length="1.44" shape="802.43,560.04 801.74,561.30"/>
    </edge>
    <edge id=":J1_2_24" function="internal">
        <lane id=":J1_2_24_0" index="0" speed="9.17" length="14.15" shape="802.05,565.64 800.13,569.44 796.44,571.89 791.06,572.83"/>
    </edge>
    <edge id=":J1_2_25" function="internal">
        <lane id=":J1_2_25_0" index="0" speed="3.65" length="3.23" shape="801.74,561.30 800.98,561.77 800.15,561.44 799.24,560.31"/>
    </edge>
    <edge id=":J1_2_15" function="internal">
        <lane id=":J1_2_15_0" index="0" speed="6.39" length="9.04" shape="790.86,566.44 793.32,566.00 795.00,564.89 795.92,563.08 796.06,560.59"/>
    </edge>
    <edge id=":J1_2_16" function="internal">
        <lane id=":J1_2_16_0" index="0" speed="13.90" length="21.26" shape="790.86,566.44 812.17,566.10"/>
        <lane id=":J1_2_16_1" index="1" speed="13.90" length="21.26" shape="790.96,569.63 812.17,569.30"/>
    </edge>
    <edge id=":J1_2_18" function="internal">
        <lane id=":J1_2_18_0" index="0" speed="9.24" length="5.46" shape="790.96,569.63 796.39,570.23"/>
    </edge>
    <edge id=":J1_2_19" function="internal">
        <lane id=":J1_2_19_0" index="0" speed="3.65" length="1.44" shape="790.96,569.63 792.18,570.40"/>
    </edge>
    <edge id=":J1_2_26" function="internal">
        <lane id=":J1_2_26_0" index="0" speed="9.24" length="14.26" shape="796.39,570.23 800.27,572.41 802.59,576.17 803.37,581.50"/>
    </edge>
    <edge id=":J1_2_27" function="internal">
        <lane id=":J1_2_27_0" index="0" speed="3.65" length="3.23" shape="792.18,570.40 792.61,571.18 792.23,572.00 791.06,572.83"/>
    </edge>
    <edge id=":N0_0" function="internal">