<nodes>
    <node id="J0_0" x="140.0" y="104.58" type="traffic_light"/>
    <node id="J0_1" x="453.1" y="106.93" type="traffic_light"/>
    <node id="J0_2" x="763.35" y="128.43" type="traffic_light"/>
    <node id="J1_0" x="103.35" y="589.43" type="traffic_light"/>
    <node id="J1_1" x="443.85" y="581.97" type="traffic_light"/>
    <node id="J1_2" x="801.77" y="570.9" type="traffic_light"/>
    <node id="W0" x="0" y="104.58" type="priority"/>
    <node id="E0" x="900" y="128.43" type="priority"/>
    <node id="W1" x="0" y="589.43" type="priority"/>
    <node id="E1" x="900" y="570.9" type="priority"/>
    <node id="N0" x="140.0" y="0" type="priority"/>
    <node id="S0" x="103.35" y="701" type="priority"/>
    <node id="N1" x="453.1" y="0" type="priority"/>
    <node id="S1" x="443.85" y="701" type="priority"/>
    <node id="N2" x="763.35" y="0" type="priority"/>
    <node id="S2" x="801.77" y="701" type="priority"/>
</nodes>