<nodes>
    <node id="P0" x="50.0" y="410.0" type="priority"/>
    <node id="P1" x="650.0" y="410.0" type="priority"/>
    <node id="P2" x="50.0" y="50.0" type="priority"/>
</nodes>