<?xml version="1.0" encoding="UTF-8"?>

<!-- generated on 2026-04-12T19:38:09.410863+05:30 by Eclipse SUMO netconvert 1.26.0
<netconvertConfiguration xmlns:xsi="http://www.w3.org/2001/XMLSchema-instance" xsi:noNamespaceSchemaLocation="http://sumo.dlr.de/xsd/netconvertConfiguration.xsd">

    <input>
        <node-files value="C:\Users\santhosh\OneDrive\Desktop\trafiic pro\web_runs\20260412_193736_280026\area.nod.xml"/>
        <edge-files value="C:\Users\santhosh\OneDrive\Desktop\trafiic pro\web_runs\20260412_193736_280026\area.edg.xml"/>
    </input>

    <output>
        <output-file value="C:\Users\santhosh\OneDrive\Desktop\trafiic pro\web_runs\20260412_193736_280026\area.net.xml"/>
    </output>

    <building_defaults>
        <default.lanewidth value="1.5"/>
    </building_defaults>

    <junctions>
        <junctions.corner-detail value="0"/>
    </junctions>

</netconvertConfiguration>
-->

<net version="1.20" limitTurnSpeed="5.50" xmlns:xsi="http://www.w3.org/2001/XMLSchema-instance" xsi:noNamespaceSchemaLocation="http://sumo.dlr.de/xsd/net_file.xsd">

    <location netOffset="-55.00,-55.00" convBoundary="0.00,0.00,650.00,390.00" origBoundary="55.00,55.00,705.00,445.00" projParameter="!"/>

    <edge id=":P0_0" function="internal">
        <lane id=":P0_0_0" index="0" speed="6.46" length="9.43" width="1.50" shape="233.24,329.77 232.94,326.77 232.05,324.62 230.57,323.33 228.49,322.90"/>
    </edge>
    <edge id=":P0_1" function="internal">
        <lane id=":P0_1_0" index="0" speed="13.90" length="13.12" width="1.50" shape="233.24,329.77 233.24,316.65"/>
    </edge>
    <edge id=":P0_2" function="internal">
        <lane id=":P0_2_0" index="0" speed="5.01" length="8.76" width="1.50" shape="233.24,329.77 233.32,325.72 233.54,323.00 233.92,321.61 234.45,321.55"/>
    </edge>
    <edge id=":P0_3" function="internal">
        <lane id=":P0_3_0" index="0" speed="2.50" length="1.87" width="1.50" shape="233.24,329.77 233.62,329.21 233.99,329.02 234.37,329.21 234.56,329.50"/>
    </edge>
    <edge id=":P0_16" function="internal">
        <lane id=":P0_16_0" index="0" speed="2.50" length="0.32" width="1.50" shape="234.56,329.50 234.74,329.77"/>
    </edge>
    <edge id=":P0_4" function="internal">
        <lane id=":P0_4_0" index="0" speed="4.60" length="7.29" width="1.50" shape="233.39,322.61 234.74,329.77"/>
    </edge>
    <edge id=":P0_5" function="internal">
        <lane id=":P0_5_0" index="0" speed="7.32" length="4.91" width="1.50" shape="233.39,322.61 228.49,322.90"/>
    </edge>
    <edge id=":P0_6" function="internal">
        <lane id=":P0_6_0" index="0" speed="8.27" length="1.26" width="1.50" shape="233.39,322.61 232.70,321.56"/>
    </edge>
    <edge id=":P0_7" function="internal">
        <lane id=":P0_7_0" index="0" speed="2.50" length="0.25" width="1.50" shape="233.39,322.61 233.34,322.37"/>
    </edge>
    <edge id=":P0_17" function="internal">
        <lane id=":P0_17_0" index="0" speed="8.27" length="5.06" width="1.50" shape="232.70,321.56 232.48,321.21 232.52,319.96 232.97,318.54 233.24,316.65"/>
    </edge>
    <edge id=":P0_18" function="internal">
        <lane id=":P0_18_0" index="0" speed="2.50" length="1.94" width="1.50" shape="233.34,322.37 233.26,321.95 233.39,321.55 233.79,321.42 234.45,321.55"/>
    </edge>
    <edge id=":P0_8" function="internal">
        <lane id=":P0_8_0" index="0" speed="7.32" length="4.91" width="1.50" shape="234.74,316.65 234.45,321.55"/>
    </edge>
    <edge id=":P0_9" function="internal">
        <lane id=":P0_9_0" index="0" speed="13.90" length="13.12" width="1.50" shape="234.74,316.65 234.74,329.77"/>
    </edge>
    <edge id=":P0_10" function="internal">
        <lane id=":P0_10_0" index="0" speed="6.49" length="2.61" width="1.50" shape="234.74,316.65 234.18,318.87 233.99,319.13"/>
    </edge>
    <edge id=":P0_11" function="internal">
        <lane id=":P0_11_0" index="0" speed="2.50" length="1.87" width="1.50" shape="234.74,316.65 234.37,317.21 233.99,317.40 233.62,317.21 233.42,316.92"/>
    </edge>
    <edge id=":P0_19" function="internal">
        <lane id=":P0_19_0" index="0" speed="6.49" length="6.94" width="1.50" shape="233.99,319.13 232.72,320.88 230.71,322.34 228.49,322.90"/>
    </edge>
    <edge id=":P0_20" function="internal">
        <lane id=":P0_20_0" index="0" speed="2.50" length="0.32" width="1.50" shape="233.42,316.92 233.24,316.65"/>
    </edge>
    <edge id=":P0_12" function="internal">
        <lane id=":P0_12_0" index="0" speed="5.85" length="7.66" width="1.50" shape="228.49,321.40 230.57,321.10 232.05,320.21 232.94,318.73 233.24,316.65"/>
    </edge>
    <edge id=":P0_13" function="internal">
        <lane id=":P0_13_0" index="0" speed="8.08" length="6.01" width="1.50" shape="228.49,321.40 229.74,321.32 231.58,321.21 233.36,321.23 234.45,321.55"/>
    </edge>
    <edge id=":P0_14" function="internal">
        <lane id=":P0_14_0" index="0" speed="7.20" length="3.91" width="1.50" shape="228.49,321.40 231.22,321.92 232.10,322.63"/>
    </edge>
    <edge id=":P0_15" function="internal">
        <lane id=":P0_15_0" index="0" speed="2.50" length="1.76" width="1.50" shape="228.49,321.40 229.05,321.77 229.24,322.15 229.05,322.52 228.84,322.66"/>
    </edge>
    <edge id=":P0_21" function="internal">
        <lane id=":P0_21_0" index="0" speed="7.20" length="7.93" width="1.50" shape="232.10,322.63 233.18,323.49 234.35,326.11 234.74,329.77"/>
    </edge>
    <edge id=":P0_22" function="internal">
        <lane id=":P0_22_0" index="0" speed="2.50" length="0.43" width="1.50" shape="228.84,322.66 228.49,322.90"/>
    </edge>
    <edge id=":P1_0" function="internal">
        <lane id=":P1_0_0" index="0" speed="7.32" length="4.91" width="1.50" shape="233.24,327.65 233.53,322.75"/>
    </edge>
    <edge id=":P1_1" function="internal">
        <lane id=":P1_1_0" index="0" speed="13.90" length="13.12" width="1.50" shape="233.24,327.65 233.24,314.53"/>
    </edge>
    <edge id=":P1_2" function="internal">
        <lane id=":P1_2_0" index="0" speed="6.49" length="2.61" width="1.50" shape="233.24,327.65 233.80,325.43 233.99,325.17"/>
    </edge>
    <edge id=":P1_3" function="internal">
        <lane id=":P1_3_0" index="0" speed="2.50" length="1.87" width="1.50" shape="233.24,327.65 233.62,327.09 233.99,326.90 234.37,327.09 234.56,327.38"/>
    </edge>
    <edge id=":P1_16" function="internal">
        <lane id=":P1_16_0" index="0" speed="6.49" length="6.94" width="1.50" shape="233.99,325.17 235.26,323.42 237.27,321.96 239.49,321.40"/>
    </edge>
    <edge id=":P1_17" function="internal">
        <lane id=":P1_17_0" index="0" speed="2.50" length="0.32" width="1.50" shape="234.56,327.38 234.74,327.65"/>
    </edge>
    <edge id=":P1_4" function="internal">
        <lane id=":P1_4_0" index="0" speed="5.85" length="7.66" width="1.50" shape="239.49,322.90 237.41,323.20 235.93,324.09 235.04,325.57 234.74,327.65"/>
    </edge>
    <edge id=":P1_5" function="internal">
        <lane id=":P1_5_0" index="0" speed="8.08" length="6.01" width="1.50" shape="239.49,322.90 238.24,322.98 236.40,323.09 234.62,323.07 233.53,322.75"/>
    </edge>
    <edge id=":P1_6" function="internal">
        <lane id=":P1_6_0" index="0" speed="7.20" length="3.91" width="1.50" shape="239.49,322.90 236.76,322.38 235.88,321.67"/>
    </edge>
    <edge id=":P1_7" function="internal">
        <lane id=":P1_7_0" index="0" speed="2.50" length="1.76" width="1.50" shape="239.49,322.90 238.93,322.52 238.74,322.15 238.93,321.77 239.14,321.64"/>
    </edge>
    <edge id=":P1_18" function="internal">
        <lane id=":P1_18_0" index="0" speed="7.20" length="7.93" width="1.50" shape="235.88,321.67 234.80,320.81 233.63,318.19 233.24,314.53"/>
    </edge>
    <edge id=":P1_19" function="internal">
        <lane id=":P1_19_0" index="0" speed="2.50" length="0.43" width="1.50" shape="239.14,321.64 239.49,321.40"/>
    </edge>
    <edge id=":P1_8" function="internal">
        <lane id=":P1_8_0" index="0" speed="6.46" length="9.43" width="1.50" shape="234.74,314.53 235.04,317.53 235.93,319.68 237.41,320.97 239.49,321.40"/>
    </edge>
    <edge id=":P1_9" function="internal">
        <lane id=":P1_9_0" index="0" speed="13.90" length="13.12" width="1.50" shape="234.74,314.53 234.74,327.65"/>
    </edge>
    <edge id=":P1_10" function="internal">
        <lane id=":P1_10_0" index="0" speed="5.01" length="8.76" width="1.50" shape="234.74,314.53 234.66,318.58 234.44,321.30 234.06,322.69 233.53,322.75"/>
    </edge>
    <edge id=":P1_11" function="internal">
        <lane id=":P1_11_0" index="0" speed="2.50" length="1.87" width="1.50" shape="234.74,314.53 234.37,315.09 233.99,315.28 233.62,315.09 233.42,314.80"/>
    </edge>
    <edge id=":P1_20" function="internal">
        <lane id=":P1_20_0" index="0" speed="2.50" length="0.32" width="1.50" shape="233.42,314.80 233.24,314.53"/>
    </edge>
    <edge id=":P1_12" function="internal">
        <lane id=":P1_12_0" index="0" speed="4.60" length="7.29" width="1.50" shape="234.59,321.69 233.24,314.53"/>
    </edge>
    <edge id=":P1_13" function="internal">
        <lane id=":P1_13_0" index="0" speed="7.32" length="4.91" width="1.50" shape="234.59,321.69 239.49,321.40"/>
    </edge>
    <edge id=":P1_14" function="internal">
        <lane id=":P1_14_0" index="0" speed="8.27" length="1.26" width="1.50" shape="234.59,321.69 235.28,322.74"/>
    </edge>
    <edge id=":P1_15" function="internal">
        <lane id=":P1_15_0" index="0" speed="2.50" length="0.25" width="1.50" shape="234.59,321.69 234.64,321.93"/>
    </edge>
    <edge id=":P1_21" function="internal">
        <lane id=":P1_21_0" index="0" speed="8.27" length="5.06" width="1.50" shape="235.28,322.74 235.50,323.09 235.46,324.34 235.01,325.76 234.74,327.65"/>
    </edge>
    <edge id=":P1_22" function="internal">
        <lane id=":P1_22_0" index="0" speed="2.50" length="1.94" width="1.50" shape="234.64,321.93 234.72,322.35 234.59,322.75 234.19,322.88 233.53,322.75"/>
    </edge>
    <edge id=":P10_0" function="internal">
        <lane id=":P10_0_0" index="0" speed="2.50" length="2.19" width="1.50" shape="0.00,42.63 -0.56,42.26 -0.75,41.88 -0.56,41.51 0.00,41.13"/>
    </edge>
    <edge id=":P11_0" function="internal">
        <lane id=":P11_0_0" index="0" speed="2.50" length="2.19" width="1.50" shape="365.63,41.13 366.19,41.51 366.38,41.88 366.19,42.26 365.63,42.63"/>
    </edge>
    <edge id=":P12_0" function="internal">
        <lane id=":P12_0_0" index="0" speed="2.50" length="2.19" width="1.50" shape="234.74,360.00 234.37,360.56 233.99,360.75 233.62,360.56 233.24,360.00"/>
    </edge>
    <edge id=":P13_0" function="internal">
        <lane id=":P13_0_0" index="0" speed="2.22" length="1.50" width="1.50" shape="233.24,0.00 234.74,0.00"/>
    </edge>
    <edge id=":P13_1" function="internal">
        <lane id=":P13_1_0" index="0" speed="2.22" length="1.50" width="1.50" shape="233.24,0.00 234.74,0.00"/>
    </edge>
    <edge id=":P14_0" function="internal">
        <lane id=":P14_0_0" index="0" speed="2.50" length="2.19" width="1.50" shape="234.74,390.00 234.37,390.56 233.99,390.75 233.62,390.56 233.24,390.00"/>
    </edge>
    <edge id=":P2_0" function="internal">
        <lane id=":P2_0_0" index="0" speed="5.85" length="7.66" width="1.50" shape="233.24,142.52 232.94,140.44 232.05,138.96 230.57,138.07 228.49,137.77"/>
    </edge>
    <edge id=":P2_1" function="internal">
        <lane id=":P2_1_0" index="0" speed="13.90" length="11.00" width="1.50" shape="233.24,142.52 233.24,131.52"/>
    </edge>
    <edge id=":P2_2" function="internal">
        <lane id=":P2_2_0" index="0" speed="13.90" length="11.00" width="1.50" shape="233.24,142.52 233.24,131.52"/>
    </edge>
    <edge id=":P2_3" function="internal">
        <lane id=":P2_3_0" index="0" speed="6.66" length="4.71" width="1.50" shape="233.24,142.52 233.63,139.79 234.63,138.11"/>
    </edge>
    <edge id=":P2_4" function="internal">
        <lane id=":P2_4_0" index="0" speed="2.22" length="0.75" width="1.50" shape="233.24,142.52 233.99,142.52"/>
    </edge>
    <edge id=":P2_5" function="internal">
        <lane id=":P2_5_0" index="0" speed="2.50" length="1.87" width="1.50" shape="233.24,142.52 233.62,141.96 233.99,141.77 234.37,141.96 234.56,142.25"/>
    </edge>
    <edge id=":P2_36" function="internal">
        <lane id=":P2_36_0" index="0" speed="6.66" length="5.37" width="1.50" shape="234.63,138.11 234.80,137.83 236.76,136.66 239.49,136.27"/>
    </edge>
    <edge id=":P2_37" function="internal">
        <lane id=":P2_37_0" index="0" speed="2.22" length="0.75" width="1.50" shape="233.99,142.52 234.74,142.52"/>
    </edge>
    <edge id=":P2_38" function="internal">
        <lane id=":P2_38_0" index="0" speed="2.50" length="0.32" width="1.50" shape="234.56,142.25 234.74,142.52"/>
    </edge>
    <edge id=":P2_6" function="internal">
        <lane id=":P2_6_0" index="0" speed="5.85" length="7.66" width="1.50" shape="233.24,142.52 232.94,140.44 232.05,138.96 230.57,138.07 228.49,137.77"/>
    </edge>
    <edge id=":P2_7" function="internal">
        <lane id=":P2_7_0" index="0" speed="13.90" length="11.00" width="1.50" shape="233.24,142.52 233.24,131.52"/>
    </edge>
    <edge id=":P2_8" function="internal">
        <lane id=":P2_8_0" index="0" speed="13.90" length="11.00" width="1.50" shape="233.24,142.52 233.24,131.52"/>
    </edge>
    <edge id=":P2_9" function="internal">
        <lane id=":P2_9_0" index="0" speed="6.49" length="2.61" width="1.50" shape="233.24,142.52 233.80,140.30 233.99,140.04"/>
    </edge>
    <edge id=":P2_10" function="internal">
        <lane id=":P2_10_0" index="0" speed="2.22" length="0.75" width="1.50" shape="233.24,142.52 233.99,142.52"/>
    </edge>
    <edge id=":P2_11" function="internal">
        <lane id=":P2_11_0" index="0" speed="2.50" length="1.87" width="1.50" shape="233.24,142.52 233.62,141.96 233.99,141.77 234.37,141.96 234.56,142.25"/>
    </edge>
    <edge id=":P2_39" function="internal">
        <lane id=":P2_39_0" index="0" speed="6.49" length="6.94" width="1.50" shape="233.99,140.04 235.26,138.29 237.27,136.83 239.49,136.27"/>
    </edge>
    <edge id=":P2_40" function="internal">
        <lane id=":P2_40_0" index="0" speed="2.22" length="0.75" width="1.50" shape="233.99,142.52 234.74,142.52"/>
    </edge>
    <edge id=":P2_41" function="internal">
        <lane id=":P2_41_0" index="0" speed="2.50" length="0.32" width="1.50" shape="234.56,142.25 234.74,142.52"/>
    </edge>
    <edge id=":P2_12" function="internal">
        <lane id=":P2_12_0" index="0" speed="5.85" length="7.66" width="1.50" shape="239.49,137.77 237.41,138.07 235.93,138.96 235.04,140.44 234.74,142.52"/>
    </edge>
    <edge id=":P2_13" function="internal">
        <lane id=":P2_13_0" index="0" speed="5.85" length="7.66" width="1.50" shape="239.49,137.77 237.41,138.07 235.93,138.96 235.04,140.44 234.74,142.52"/>
    </edge>
    <edge id=":P2_14" function="internal">
        <lane id=":P2_14_0" index="0" speed="13.90" length="11.00" width="1.50" shape="239.49,137.77 228.49,137.77"/>
    </edge>
    <edge id=":P2_15" function="internal">
        <lane id=":P2_15_0" index="0" speed="6.66" length="4.71" width="1.50" shape="239.49,137.77 236.76,137.38 235.08,136.38"/>
    </edge>
    <edge id=":P2_16" function="internal">
        <lane id=":P2_16_0" index="0" speed="6.49" length="3.84" width="1.50" shape="239.49,137.77 237.27,137.21 236.01,136.30"/>
    </edge>
    <edge id=":P2_17" function="internal">
        <lane id=":P2_17_0" index="0" speed="2.50" length="1.87" width="1.50" shape="239.49,137.77 238.93,137.40 238.74,137.02 238.93,136.65 239.22,136.45"/>
    </edge>
    <edge id=":P2_42" function="internal">
        <lane id=":P2_42_0" index="0" speed="6.66" length="5.37" width="1.50" shape="235.08,136.38 234.80,136.21 233.63,134.25 233.24,131.52"/>
    </edge>
    <edge id=":P2_43" function="internal">
        <lane id=":P2_43_0" index="0" speed="6.49" length="5.70" width="1.50" shape="236.01,136.30 235.26,135.75 233.80,133.74 233.24,131.52"/>
    </edge>
    <edge id=":P2_44" function="internal">
        <lane id=":P2_44_0" index="0" speed="2.50" length="0.32" width="1.50" shape="239.22,136.45 239.49,136.27"/>
    </edge>
    <edge id=":P2_18" function="internal">
        <lane id=":P2_18_0" index="0" speed="5.85" length="7.66" width="1.50" shape="234.74,131.52 235.04,133.60 235.93,135.08 237.41,135.97 239.49,136.27"/>
    </edge>
    <edge id=":P2_19" function="internal">
        <lane id=":P2_19_0" index="0" speed="13.90" length="11.00" width="1.50" shape="234.74,131.52 234.74,142.52"/>
    </edge>
    <edge id=":P2_20" function="internal">
        <lane id=":P2_20_0" index="0" speed="13.90" length="11.00" width="1.50" shape="234.74,131.52 234.74,142.52"/>
    </edge>
    <edge id=":P2_21" function="internal">
        <lane id=":P2_21_0" index="0" speed="6.66" length="4.71" width="1.50" shape="234.74,131.52 234.35,134.25 233.35,135.93"/>
    </edge>
    <edge id=":P2_22" function="internal">
        <lane id=":P2_22_0" index="0" speed="2.22" length="0.75" width="1.50" shape="234.74,131.52 233.99,131.52"/>
    </edge>
    <edge id=":P2_23" function="internal">
        <lane id=":P2_23_0" index="0" speed="2.50" length="1.87" width="1.50" shape="234.74,131.52 234.37,132.08 233.99,132.27 233.62,132.08 233.42,131.79"/>
    </edge>
    <edge id=":P2_45" function="internal">
        <lane id=":P2_45_0" index="0" speed="6.66" length="5.37" width="1.50" shape="233.35,135.93 233.18,136.21 231.22,137.38 228.49,137.77"/>
    </edge>
    <edge id=":P2_46" function="internal">
        <lane id=":P2_46_0" index="0" speed="2.22" length="0.75" width="1.50" shape="233.99,131.52 233.24,131.52"/>
    </edge>
    <edge id=":P2_47" function="internal">
        <lane id=":P2_47_0" index="0" speed="2.50" length="0.32" width="1.50" shape="233.42,131.79 233.24,131.52"/>
    </edge>
    <edge id=":P2_24" function="internal">
        <lane id=":P2_24_0" index="0" speed="5.85" length="7.66" width="1.50" shape="234.74,131.52 235.04,133.60 235.93,135.08 237.41,135.97 239.49,136.27"/>
    </edge>
    <edge id=":P2_25" function="internal">
        <lane id=":P2_25_0" index="0" speed="13.90" length="11.00" width="1.50" shape="234.74,131.52 234.74,142.52"/>
    </edge>
    <edge id=":P2_26" function="internal">
        <lane id=":P2_26_0" index="0" speed="13.90" length="11.00" width="1.50" shape="234.74,131.52 234.74,142.52"/>
    </edge>
    <edge id=":P2_27" function="internal">
        <lane id=":P2_27_0" index="0" speed="6.49" length="2.61" width="1.50" shape="234.74,131.52 234.18,133.74 233.99,134.00"/>
    </edge>
    <edge id=":P2_28" function="internal">
        <lane id=":P2_28_0" index="0" speed="2.22" length="0.75" width="1.50" shape="234.74,131.52 233.99,131.52"/>
    </edge>
    <edge id=":P2_29" function="internal">
        <lane id=":P2_29_0" index="0" speed="2.50" length="1.87" width="1.50" shape="234.74,131.52 234.37,132.08 233.99,132.27 233.62,132.08 233.42,131.79"/>
    </edge>
    <edge id=":P2_48" function="internal">
        <lane id=":P2_48_0" index="0" speed="6.49" length="6.94" width="1.50" shape="233.99,134.00 232.72,135.75 230.71,137.21 228.49,137.77"/>
    </edge>
    <edge id=":P2_49" function="internal">
        <lane id=":P2_49_0" index="0" speed="2.22" length="0.75" width="1.50" shape="233.99,131.52 233.24,131.52"/>
    </edge>
    <edge id=":P2_50" function="internal">
        <lane id=":P2_50_0" index="0" speed="2.50" length="0.32" width="1.50" shape="233.42,131.79 233.24,131.52"/>
    </edge>
    <edge id=":P2_30" function="internal">
        <lane id=":P2_30_0" index="0" speed="5.85" length="7.66" width="1.50" shape="228.49,136.27 230.57,135.97 232.05,135.08 232.94,133.60 233.24,131.52"/>
    </edge>
    <edge id=":P2_31" function="internal">
        <lane id=":P2_31_0" index="0" speed="5.85" length="7.66" width="1.50" shape="228.49,136.27 230.57,135.97 232.05,135.08 232.94,133.60 233.24,131.52"/>
    </edge>
    <edge id=":P2_32" function="internal">
        <lane id=":P2_32_0" index="0" speed="13.90" length="11.00" width="1.50" shape="228.49,136.27 239.49,136.27"/>
    </edge>
    <edge id=":P2_33" function="internal">
        <lane id=":P2_33_0" index="0" speed="6.66" length="4.71" width="1.50" shape="228.49,136.27 231.22,136.66 232.90,137.66"/>
    </edge>
    <edge id=":P2_34" function="internal">
        <lane id=":P2_34_0" index="0" speed="6.49" length="3.84" width="1.50" shape="228.49,136.27 230.71,136.83 231.97,137.74"/>
    </edge>
    <edge id=":P2_35" function="internal">
        <lane id=":P2_35_0" index="0" speed="2.50" length="1.87" width="1.50" shape="228.49,136.27 229.05,136.65 229.24,137.02 229.05,137.40 228.76,137.59"/>
    </edge>
    <edge id=":P2_51" function="internal">
        <lane id=":P2_51_0" index="0" speed="6.66" length="5.37" width="1.50" shape="232.90,137.66 233.18,137.83 234.35,139.79 234.74,142.52"/>
    </edge>
    <edge id=":P2_52" function="internal">
        <lane id=":P2_52_0" index="0" speed="6.49" length="5.70" width="1.50" shape="231.97,137.74 232.72,138.29 234.18,140.30 234.74,142.52"/>
    </edge>
    <edge id=":P2_53" function="internal">
        <lane id=":P2_53_0" index="0" speed="2.50" length="0.32" width="1.50" shape="228.76,137.59 228.49,137.77"/>
    </edge>
    <edge id=":P4_0" function="internal">
        <lane id=":P4_0_0" index="0" speed="6.46" length="9.43" width="1.50" shape="233.24,49.50 232.94,46.50 232.05,44.35 230.57,43.06 228.49,42.63"/>
    </edge>
    <edge id=":P4_1" function="internal">
        <lane id=":P4_1_0" index="0" speed="13.90" length="13.12" width="1.50" shape="233.24,49.50 233.24,36.38"/>
    </edge>
    <edge id=":P4_2" function="internal">
        <lane id=":P4_2_0" index="0" speed="5.01" length="8.76" width="1.50" shape="233.24,49.50 233.32,45.45 233.54,42.73 233.92,41.34 234.45,41.28"/>
    </edge>
    <edge id=":P4_3" function="internal">
        <lane id=":P4_3_0" index="0" speed="2.50" length="1.87" width="1.50" shape="233.24,49.50 233.62,48.94 233.99,48.75 234.37,48.94 234.56,49.23"/>
    </edge>
    <edge id=":P4_16" function="internal">
        <lane id=":P4_16_0" index="0" speed="2.50" length="0.32" width="1.50" shape="234.56,49.23 234.74,49.50"/>
    </edge>
    <edge id=":P4_4" function="internal">
        <lane id=":P4_4_0" index="0" speed="4.60" length="7.29" width="1.50" shape="233.39,42.34 234.74,49.50"/>
    </edge>
    <edge id=":P4_5" function="internal">
        <lane id=":P4_5_0" index="0" speed="7.55" length="5.24" width="1.50" shape="233.39,42.34 232.24,41.65 231.21,41.83 230.05,42.34 228.49,42.63"/>
    </edge>
    <edge id=":P4_6" function="internal">
        <lane id=":P4_6_0" index="0" speed="8.08" length="0.19" width="1.50" shape="233.39,42.34 233.33,42.16"/>
    </edge>
    <edge id=":P4_7" function="internal">
        <lane id=":P4_7_0" index="0" speed="2.50" length="0.25" width="1.50" shape="233.39,42.34 233.34,42.10"/>
    </edge>
    <edge id=":P4_17" function="internal">
        <lane id=":P4_17_0" index="0" speed="8.08" length="5.82" width="1.50" shape="233.33,42.16 233.07,41.25 233.05,39.47 233.16,37.63 233.24,36.38"/>
    </edge>
    <edge id=":P4_18" function="internal">
        <lane id=":P4_18_0" index="0" speed="2.50" length="1.94" width="1.50" shape="233.34,42.10 233.26,41.68 233.39,41.28 233.79,41.15 234.45,41.28"/>
    </edge>
    <edge id=":P4_8" function="internal">
        <lane id=":P4_8_0" index="0" speed="7.32" length="4.91" width="1.50" shape="234.74,36.38 234.45,41.28"/>
    </edge>
    <edge id=":P4_9" function="internal">
        <lane id=":P4_9_0" index="0" speed="13.90" length="13.12" width="1.50" shape="234.74,36.38 234.74,49.50"/>
    </edge>
    <edge id=":P4_10" function="internal">
        <lane id=":P4_10_0" index="0" speed="6.49" length="2.61" width="1.50" shape="234.74,36.38 234.18,38.60 233.99,38.86"/>
    </edge>
    <edge id=":P4_11" function="internal">
        <lane id=":P4_11_0" index="0" speed="2.50" length="1.87" width="1.50" shape="234.74,36.38 234.37,36.94 233.99,37.13 233.62,36.94 233.42,36.65"/>
    </edge>
    <edge id=":P4_19" function="internal">
        <lane id=":P4_19_0" index="0" speed="6.49" length="6.94" width="1.50" shape="233.99,38.86 232.72,40.61 230.71,42.07 228.49,42.63"/>
    </edge>
    <edge id=":P4_20" function="internal">
        <lane id=":P4_20_0" index="0" speed="2.50" length="0.32" width="1.50" shape="233.42,36.65 233.24,36.38"/>
    </edge>
    <edge id=":P4_12" function="internal">
        <lane id=":P4_12_0" index="0" speed="5.85" length="7.66" width="1.50" shape="228.49,41.13 230.57,40.83 232.05,39.94 232.94,38.46 233.24,36.38"/>
    </edge>
    <edge id=":P4_13" function="internal">
        <lane id=":P4_13_0" index="0" speed="8.08" length="6.01" width="1.50" shape="228.49,41.13 229.74,41.05 231.58,40.94 233.36,40.96 234.45,41.28"/>
    </edge>
    <edge id=":P4_14" function="internal">
        <lane id=":P4_14_0" index="0" speed="7.20" length="6.06" width="1.50" shape="228.49,41.13 231.22,41.65 233.18,43.22 233.49,43.93"/>
    </edge>
    <edge id=":P4_15" function="internal">
        <lane id=":P4_15_0" index="0" speed="2.50" length="0.68" width="1.50" shape="228.49,41.13 229.05,41.51"/>
    </edge>
    <edge id=":P4_21" function="internal">
        <lane id=":P4_21_0" index="0" speed="7.20" length="5.78" width="1.50" shape="233.49,43.93 234.35,45.84 234.74,49.50"/>
    </edge>
    <edge id=":P4_22" function="internal">
        <lane id=":P4_22_0" index="0" speed="2.50" length="1.51" width="1.50" shape="229.05,41.51 229.24,41.88 229.05,42.26 228.49,42.63"/>
    </edge>
    <edge id=":P5_0" function="internal">
        <lane id=":P5_0_0" index="0" speed="7.32" length="4.91" width="1.50" shape="233.24,47.38 233.53,42.48"/>
    </edge>
    <edge id=":P5_1" function="internal">
        <lane id=":P5_1_0" index="0" speed="13.90" length="13.12" width="1.50" shape="233.24,47.38 233.24,34.26"/>
    </edge>
    <edge id=":P5_2" function="internal">
        <lane id=":P5_2_0" index="0" speed="6.49" length="2.61" width="1.50" shape="233.24,47.38 233.80,45.16 233.99,44.90"/>
    </edge>
    <edge id=":P5_3" function="internal">
        <lane id=":P5_3_0" index="0" speed="2.50" length="1.87" width="1.50" shape="233.24,47.38 233.62,46.82 233.99,46.63 234.37,46.82 234.56,47.11"/>
    </edge>
    <edge id=":P5_16" function="internal">
        <lane id=":P5_16_0" index="0" speed="6.49" length="6.94" width="1.50" shape="233.99,44.90 235.26,43.15 237.27,41.69 239.49,41.13"/>
    </edge>
    <edge id=":P5_17" function="internal">
        <lane id=":P5_17_0" index="0" speed="2.50" length="0.32" width="1.50" shape="234.56,47.11 234.74,47.38"/>
    </edge>
    <edge id=":P5_4" function="internal">
        <lane id=":P5_4_0" index="0" speed="5.85" length="7.66" width="1.50" shape="239.49,42.63 237.41,42.93 235.93,43.82 235.04,45.30 234.74,47.38"/>
    </edge>
    <edge id=":P5_5" function="internal">
        <lane id=":P5_5_0" index="0" speed="8.04" length="5.96" width="1.50" shape="239.49,42.63 233.53,42.48"/>
    </edge>
    <edge id=":P5_6" function="internal">
        <lane id=":P5_6_0" index="0" speed="7.20" length="3.91" width="1.50" shape="239.49,42.63 236.76,42.11 235.88,41.40"/>
    </edge>
    <edge id=":P5_7" function="internal">
        <lane id=":P5_7_0" index="0" speed="2.50" length="1.76" width="1.50" shape="239.49,42.63 238.93,42.26 238.74,41.88 238.93,41.51 239.14,41.37"/>
    </edge>
    <edge id=":P5_18" function="internal">
        <lane id=":P5_18_0" index="0" speed="7.20" length="7.93" width="1.50" shape="235.88,41.40 234.80,40.54 233.63,37.92 233.24,34.26"/>
    </edge>
    <edge id=":P5_19" function="internal">
        <lane id=":P5_19_0" index="0" speed="2.50" length="0.43" width="1.50" shape="239.14,41.37 239.49,41.13"/>
    </edge>
    <edge id=":P5_8" function="internal">
        <lane id=":P5_8_0" index="0" speed="6.46" length="9.43" width="1.50" shape="234.74,34.26 235.04,37.26 235.93,39.41 237.41,40.70 239.49,41.13"/>
    </edge>
    <edge id=":P5_9" function="internal">
        <lane id=":P5_9_0" index="0" speed="13.90" length="13.12" width="1.50" shape="234.74,34.26 234.74,47.38"/>
    </edge>
    <edge id=":P5_10" function="internal">
        <lane id=":P5_10_0" index="0" speed="5.01" length="8.76" width="1.50" shape="234.74,34.26 234.66,38.31 234.44,41.03 234.06,42.42 233.53,42.48"/>
    </edge>
    <edge id=":P5_11" function="internal">
        <lane id=":P5_11_0" index="0" speed="2.50" length="1.87" width="1.50" shape="234.74,34.26 234.37,34.82 233.99,35.01 233.62,34.82 233.42,34.53"/>
    </edge>
    <edge id=":P5_20" function="internal">
        <lane id=":P5_20_0" index="0" speed="2.50" length="0.32" width="1.50" shape="233.42,34.53 233.24,34.26"/>
    </edge>
    <edge id=":P5_12" function="internal">
        <lane id=":P5_12_0" index="0" speed="4.60" length="7.29" width="1.50" shape="234.59,41.42 233.24,34.26"/>
    </edge>
    <edge id=":P5_13" function="internal">
        <lane id=":P5_13_0" index="0" speed="7.32" length="4.91" width="1.50" shape="234.59,41.42 239.49,41.13"/>
    </edge>
    <edge id=":P5_14" function="internal">
        <lane id=":P5_14_0" index="0" speed="8.27" length="0.92" width="1.50" shape="234.59,41.42 235.10,42.19"/>
    </edge>
    <edge id=":P5_15" function="internal">
        <lane id=":P5_15_0" index="0" speed="2.50" length="0.18" width="1.50" shape="234.59,41.42 234.63,41.59"/>
    </edge>
    <edge id=":P5_21" function="internal">
        <lane id=":P5_21_0" index="0" speed="8.27" length="5.39" width="1.50" shape="235.10,42.19 235.50,42.82 235.46,44.07 235.01,45.49 234.74,47.38"/>
    </edge>
    <edge id=":P5_22" function="internal">
        <lane id=":P5_22_0" index="0" speed="2.50" length="2.01" width="1.50" shape="234.63,41.59 234.72,42.08 234.59,42.48 234.19,42.61 233.53,42.48"/>
    </edge>
    <edge id=":P6_0" function="internal">