<?xml version="1.0" encoding="UTF-8"?>

<!-- generated on 2026-04-12T11:20:35.507810+05:30 by Eclipse SUMO netconvert 1.26.0
<netconvertConfiguration xmlns:xsi="http://www.w3.org/2001/XMLSchema-instance" xsi:noNamespaceSchemaLocation="http://sumo.dlr.de/xsd/netconvertConfiguration.xsd">

    <input>
        <node-files value="C:\Users\santhosh\OneDrive\Desktop\trafiic pro\web_runs\20260412_112035_279289\area.nod.xml"/>
        <edge-files value="C:\Users\santhosh\OneDrive\Desktop\trafiic pro\web_runs\20260412_112035_279289\area.edg.xml"/>
    </input>

    <output>
        <output-file value="C:\Users\santhosh\OneDrive\Desktop\trafiic pro\web_runs\20260412_112035_279289\area.net.xml"/>
    </output>

    <building_defaults>
        <default.lanewidth value="1.8"/>
    </building_defaults>

    <junctions>
        <junctions.corner-detail value="0"/>
    </junctions>

</netconvertConfiguration>
-->

<net version="1.20" limitTurnSpeed="5.50" xmlns:xsi="http://www.w3.org/2001/XMLSchema-instance" xsi:noNamespaceSchemaLocation="http://sumo.dlr.de/xsd/net_file.xsd">

    <location netOffset="-90.00,-90.00" convBoundary="0.00,0.00,800.00,561.47" origBoundary="90.00,90.00,890.00,651.47" projParameter="!"/>

    <edge id=":P0_0" function="internal">
        <lane id=":P0_0_0" index="0" speed="13.90" length="121.69" width="1.80" shape="99.94,375.56 95.47,380.52 94.10,402.12 95.84,440.35 100.69,495.23"/>
    </edge>
    <edge id=":P0_1" function="internal">
        <lane id=":P0_1_0" index="0" speed="12.95" length="6.60" width="1.80" shape="99.94,375.56 98.22,374.64 96.97,374.14 95.63,373.93 93.69,373.84"/>
    </edge>
    <edge id=":P0_2" function="internal">
        <lane id=":P0_2_0" index="0" speed="2.74" length="2.21" width="1.80" shape="99.94,375.56 99.57,374.84 99.59,374.33 100.01,374.05 100.40,374.02"/>
    </edge>
    <edge id=":P0_9" function="internal">
        <lane id=":P0_9_0" index="0" speed="2.74" length="0.42" width="1.80" shape="100.40,374.02 100.82,373.99"/>
    </edge>
    <edge id=":P0_3" function="internal">
        <lane id=":P0_3_0" index="0" speed="13.77" length="7.47" width="1.80" shape="93.74,372.04 95.94,372.14 97.45,372.38 98.87,372.94 100.82,373.99"/>
    </edge>
    <edge id=":P0_4" function="internal">
        <lane id=":P0_4_0" index="0" speed="13.90" length="123.72" width="1.80" shape="93.74,372.04 92.09,379.69 92.71,402.76 95.57,441.28 100.69,495.23"/>
    </edge>
    <edge id=":P0_5" function="internal">
        <lane id=":P0_5_0" index="0" speed="2.74" length="2.28" width="1.80" shape="93.74,372.04 94.40,372.51 94.61,372.97 94.38,373.41 93.99,373.65"/>
    </edge>
    <edge id=":P0_10" function="internal">
        <lane id=":P0_10_0" index="0" speed="2.74" length="0.35" width="1.80" shape="93.99,373.65 93.69,373.84"/>
    </edge>
    <edge id=":P0_6" function="internal">
        <lane id=":P0_6_0" index="0" speed="13.90" length="121.53" width="1.80" shape="102.48,495.05 101.54,479.84 98.57,437.77 95.35,394.03 93.69,373.84"/>
    </edge>
    <edge id=":P0_7" function="internal">
        <lane id=":P0_7_0" index="0" speed="13.90" length="122.78" width="1.80" shape="102.48,495.05 97.54,439.74 95.62,401.12 96.71,379.20 100.82,373.99"/>
    </edge>
    <edge id=":P0_8" function="internal">
        <lane id=":P0_8_0" index="0" speed="2.74" length="0.27" width="1.80" shape="102.48,495.05 102.36,495.28"/>
    </edge>
    <edge id=":P0_11" function="internal">
        <lane id=":P0_11_0" index="0" speed="2.74" length="2.36" width="1.80" shape="102.36,495.28 102.10,495.77 101.68,496.04 101.21,495.86 100.69,495.23"/>
    </edge>
    <edge id=":P1_0" function="internal">
        <lane id=":P1_0_0" index="0" speed="13.90" length="19.57" width="1.80" shape="503.61,540.31 499.15,540.47 493.83,540.49 488.50,540.38 484.05,540.15"/>
    </edge>
    <edge id=":P1_1" function="internal">
        <lane id=":P1_1_0" index="0" speed="6.52" length="5.34" width="1.80" shape="503.61,540.31 500.46,540.05 498.58,538.94"/>
    </edge>
    <edge id=":P1_2" function="internal">
        <lane id=":P1_2_0" index="0" speed="2.74" length="2.29" width="1.80" shape="503.61,540.31 502.91,539.90 502.66,539.47 502.86,539.00 503.24,538.72"/>
    </edge>
    <edge id=":P1_9" function="internal">
        <lane id=":P1_9_0" index="0" speed="6.52" length="5.80" width="1.80" shape="498.58,538.94 498.39,538.83 497.37,536.63 497.42,533.48"/>
    </edge>
    <edge id=":P1_10" function="internal">
        <lane id=":P1_10_0" index="0" speed="2.74" length="0.33" width="1.80" shape="503.24,538.72 503.50,538.51"/>
    </edge>
    <edge id=":P1_3" function="internal">
        <lane id=":P1_3_0" index="0" speed="5.51" length="7.74" width="1.80" shape="499.20,533.76 499.17,535.96 499.87,537.48 501.32,538.33 503.50,538.51"/>
    </edge>
    <edge id=":P1_4" function="internal">
        <lane id=":P1_4_0" index="0" speed="9.13" length="18.05" width="1.80" shape="499.20,533.76 497.80,536.96 494.81,539.09 490.23,540.15 484.05,540.15"/>
    </edge>
    <edge id=":P1_5" function="internal">
        <lane id=":P1_5_0" index="0" speed="2.74" length="1.31" width="1.80" shape="499.20,533.76 498.65,534.36 498.17,534.51"/>
    </edge>
    <edge id=":P1_11" function="internal">
        <lane id=":P1_11_0" index="0" speed="2.74" length="1.31" width="1.80" shape="498.17,534.51 497.76,534.22 497.42,533.48"/>
    </edge>
    <edge id=":P1_6" function="internal">
        <lane id=":P1_6_0" index="0" speed="8.45" length="15.37" width="1.80" shape="484.18,538.35 489.63,538.40 493.65,537.61 496.25,535.97 497.42,533.48"/>
    </edge>
    <edge id=":P1_7" function="internal">
        <lane id=":P1_7_0" index="0" speed="13.90" length="19.33" width="1.80" shape="484.18,538.35 488.60,538.58 493.84,538.69 499.08,538.67 503.50,538.51"/>
    </edge>
    <edge id=":P1_8" function="internal">
        <lane id=":P1_8_0" index="0" speed="2.74" length="2.19" width="1.80" shape="484.18,538.35 484.82,538.85 485.01,539.32 484.75,539.75 484.43,539.93"/>
    </edge>
    <edge id=":P1_12" function="internal">
        <lane id=":P1_12_0" index="0" speed="2.74" length="0.44" width="1.80" shape="484.43,539.93 484.05,540.15"/>
    </edge>
    <edge id=":P2_0" function="internal">
        <lane id=":P2_0_0" index="0" speed="13.90" length="13.46" width="1.80" shape="632.10,533.40 628.59,533.29 625.37,533.21 622.16,533.22 618.65,533.36"/>
    </edge>
    <edge id=":P2_1" function="internal">
        <lane id=":P2_1_0" index="0" speed="7.28" length="5.20" width="1.80" shape="632.10,533.40 629.25,532.88 627.32,531.63"/>
    </edge>
    <edge id=":P2_2" function="internal">
        <lane id=":P2_2_0" index="0" speed="2.74" length="2.25" width="1.80" shape="632.10,533.40 631.44,532.93 631.23,532.47 631.47,532.03 631.83,531.80"/>
    </edge>
    <edge id=":P2_9" function="internal">
        <lane id=":P2_9_0" index="0" speed="7.28" length="5.92" width="1.80" shape="627.32,531.63 627.15,531.52 625.79,529.31 625.17,526.25"/>
    </edge>
    <edge id=":P2_10" function="internal">
        <lane id=":P2_10_0" index="0" speed="2.74" length="0.38" width="1.80" shape="631.83,531.80 632.16,531.60"/>
    </edge>
    <edge id=":P2_3" function="internal">
        <lane id=":P2_3_0" index="0" speed="6.38" length="8.42" width="1.80" shape="626.97,526.12 627.43,528.47 628.45,530.16 630.03,531.20 632.16,531.60"/>
    </edge>
    <edge id=":P2_4" function="internal">
        <lane id=":P2_4_0" index="0" speed="7.40" length="12.54" width="1.80" shape="626.97,526.12 626.63,529.09 625.12,531.29 622.47,532.71 618.65,533.36"/>
    </edge>
    <edge id=":P2_5" function="internal">
        <lane id=":P2_5_0" index="0" speed="2.74" length="1.31" width="1.80" shape="626.97,526.12 626.57,526.83 626.13,527.08"/>
    </edge>
    <edge id=":P2_11" function="internal">
        <lane id=":P2_11_0" index="0" speed="2.74" length="1.31" width="1.80" shape="626.13,527.08 625.67,526.89 625.17,526.25"/>
    </edge>
    <edge id=":P2_6" function="internal">
        <lane id=":P2_6_0" index="0" speed="6.53" length="9.63" width="1.80" shape="618.54,531.57 621.57,531.08 623.69,530.03 624.89,528.42 625.17,526.25"/>
    </edge>
    <edge id=":P2_7" function="internal">
        <lane id=":P2_7_0" index="0" speed="13.90" length="13.62" width="1.80" shape="618.54,531.57 622.07,531.42 625.35,531.41 628.62,531.49 632.16,531.60"/>
    </edge>
    <edge id=":P2_8" function="internal">
        <lane id=":P2_8_0" index="0" speed="2.74" length="2.28" width="1.80" shape="618.54,531.57 619.24,531.98 619.50,532.41 619.30,532.87 618.93,533.16"/>
    </edge>
    <edge id=":P2_12" function="internal">
        <lane id=":P2_12_0" index="0" speed="2.74" length="0.35" width="1.80" shape="618.93,533.16 618.65,533.36"/>
    </edge>
    <edge id=":P3_0" function="internal">
        <lane id=":P3_0_0" index="0" speed="4.69" length="2.99" width="1.80" shape="798.55,515.43 798.45,516.20 798.16,516.85 797.69,517.39 797.03,517.81"/>
    </edge>
    <edge id=":P3_1" function="internal">
        <lane id=":P3_1_0" index="0" speed="13.90" length="1.00" width="1.80" shape="796.25,516.19 796.46,516.05 796.62,515.87 796.72,515.65 796.75,515.40"/>
    </edge>
    <edge id=":P4_0" function="internal">
        <lane id=":P4_0_0" index="0" speed="2.74" length="2.63" width="1.80" shape="-0.02,371.28 -0.69,370.81 -0.90,370.36 -0.66,369.91 0.02,369.48"/>
    </edge>
    <edge id=":P5_0" function="internal">
        <lane id=":P5_0_0" index="0" speed="2.74" length="2.63" width="1.80" shape="40.74,0.08 41.13,-0.63 41.56,-0.90 42.03,-0.71 42.54,-0.08"/>
    </edge>
    <edge id=":P6_0" function="internal">
        <lane id=":P6_0_0" index="0" speed="2.74" length="2.63" width="1.80" shape="494.11,0.21 494.38,-0.55 494.77,-0.87 495.26,-0.76 495.85,-0.21"/>
    </edge>
    <edge id=":P7_0" function="internal">
        <lane id=":P7_0_0" index="0" speed="2.74" length="2.63" width="1.80" shape="607.07,187.20 607.49,186.50 607.93,186.26 608.39,186.47 608.87,187.12"/>
    </edge>
    <edge id=":P8_0" function="internal">
        <lane id=":P8_0_0" index="0" speed="2.74" length="2.63" width="1.80" shape="788.31,187.21 788.72,186.51 789.16,186.26 789.62,186.46 790.11,187.11"/>
    </edge>

    <edge id="E0_P0_P4" from="P0" to="P4" priority="-1">
        <lane id="E0_P0_P4_0" index="0" speed="13.90" length="93.75" width="1.80" shape="93.69,373.84 -0.02,371.28"/>
    </edge>
    <edge id="E0_P4_P0" from="P4" to="P0" priority="-1">
        <lane id="E0_P4_P0_0" index="0" speed="13.90" length="93.75" width="1.80" shape="0.02,369.48 93.74,372.04"/>
    </edge>
    <edge id="E1_P0_P1" from="P0" to="P1" priority="-1" shape="97.27,373.04 227.13,445.44 302.86,479.12 378.58,510.65 454.31,536.95 493.83,540.00">
        <lane id="E1_P0_P1_0" index="0" speed="13.90" length="419.70" width="1.80" shape="100.82,373.99 227.53,444.63 303.22,478.29 378.90,509.81 454.50,536.06 484.18,538.35"/>
    </edge>
    <edge id="E1_P1_P0" from="P1" to="P0" priority="-1" shape="493.83,540.00 454.31,536.95 378.58,510.65 302.86,479.12 227.13,445.44 97.27,373.04">
        <lane id="E1_P1_P0_0" index="0" speed="13.90" length="420.47" width="1.80" shape="484.05,540.15 454.12,537.84 378.26,511.49 302.50,479.95 226.73,446.25 99.94,375.56"/>
    </edge>
    <edge id="E2_P1_P2" from="P1" to="P2" priority="-1">
        <lane id="E2_P1_P2_0" index="0" speed="13.90" length="115.25" width="1.80" shape="503.50,538.51 618.54,531.57"/>
    </edge>
    <edge id="E2_P2_P1" from="P2" to="P1" priority="-1">
        <lane id="E2_P2_P1_0" index="0" speed="13.90" length="115.25" width="1.80" shape="618.65,533.36 503.61,540.31"/>
    </edge>
    <edge id="E3_P2_P3" from="P2" to="P3" priority="-1" shape="622.67,532.22 757.17,536.16 800.00,515.37">
        <lane id="E3_P2_P3_0" index="0" speed="13.90" length="168.53" width="1.80" shape="632.16,531.60 756.98,535.25 796.25,516.19"/>
    </edge>
    <edge id="E3_P3_P2" from="P3" to="P2" priority="-1" shape="800.00,515.37 757.17,536.16 622.67,532.22">
        <lane id="E3_P3_P2_0" index="0" speed="13.90" length="169.41" width="1.80" shape="797.03,517.81 757.36,537.07 632.10,533.40"/>
    </edge>
    <edge id="E4_P0_P5" from="P0" to="P5" priority="-1" shape="101.99,499.12 83.03,311.96 52.27,124.80 41.64,0.00">
        <lane id="E4_P0_P5_0" index="0" speed="13.90" length="499.06" width="1.80" shape="100.69,495.23 82.14,312.08 51.38,124.91 40.74,0.08"/>
    </edge>
    <edge id="E4_P5_P0" from="P5" to="P0" priority="-1" shape="41.64,0.00 52.27,124.80 83.03,311.96 101.99,499.12">
        <lane id="E4_P5_P0_0" index="0" speed="13.90" length="499.03" width="1.80" shape="42.54,-0.08 53.16,124.69 83.92,311.84 102.48,495.05"/>
    </edge>
    <edge id="E5_P1_P6" from="P1" to="P6" priority="-1" shape="493.83,561.47 523.96,374.32 540.10,187.16 494.98,0.00">
        <lane id="E5_P1_P6_0" index="0" speed="13.90" length="541.37" width="1.80" shape="497.42,533.48 523.07,374.21 539.19,187.23 494.11,0.21"/>
    </edge>
    <edge id="E5_P6_P1" from="P6" to="P1" priority="-1" shape="494.98,0.00 540.10,187.16 523.96,374.32 493.83,561.47">
        <lane id="E5_P6_P1_0" index="0" speed="13.90" length="542.09" width="1.80" shape="495.85,-0.21 541.01,187.09 524.85,374.43 499.20,533.76"/>
    </edge>
    <edge id="E6_P2_P7" from="P2" to="P7" priority="-1" shape="628.54,561.47 615.45,374.32 607.97,187.16">
        <lane id="E6_P2_P7_0" index="0" speed="13.90" length="339.57" width="1.80" shape="625.17,526.25 614.55,374.37 607.07,187.20"/>
    </edge>
    <edge id="E6_P7_P2" from="P7" to="P2" priority="-1" shape="607.97,187.16 615.45,374.32 628.54,561.47">
        <lane id="E6_P7_P2_0" index="0" speed="13.90" length="339.52" width="1.80" shape="608.87,187.12 616.35,374.27 626.97,526.12"/>
    </edge>
    <edge id="E7_P3_P8" from="P3" to="P8" priority="-1" shape="796.90,561.47 799.96,374.32 789.21,187.16">
        <lane id="E7_P3_P8_0" index="0" speed="13.90" length="328.51" width="1.80" shape="796.75,515.40 799.06,374.34 788.31,187.21"/>
    </edge>
    <edge id="E7_P8_P3" from="P8" to="P3" priority="-1" shape="789.21,187.16 799.96,374.32 796.90,561.47">
        <lane id="E7_P8_P3_0" index="0" speed="13.90" length="328.65" width="1.80" shape="790.11,187.11 800.86,374.30 798.55,515.43"/>
    </edge>

    <tlLogic id="P0" type="static" programID="0" offset="0">
        <phase duration="36" state="GGgGggrrr"/>
        <phase duration="3"  state="yyyyyyrrr"/>
        <phase duration="6"  state="rrrrrrrrr"/>
        <phase duration="36" state="GrrrrrGGg"/>
        <phase duration="3"  state="yrrrrryyy"/>
        <phase duration="6"  state="rrrrrrrrr"/>
    </tlLogic>
    <tlLogic id="P1" type="static" programID="0" offset="0">
        <phase duration="42" state="GggrrrGGg"/>
        <phase duration="3"  state="yyyrrrGyy"/>
        <phase duration="42" state="rrrGGgGrr"/>
        <phase duration="3"  state="rrryyyGrr"/>
    </tlLogic>
    <tlLogic id="P2" type="static" programID="0" offset="0">
        <phase duration="42" state="GggrrrGGg"/>
        <phase duration="3"  state="yyyrrrGyy"/>
        <phase duration="42" state="rrrGGgGrr"/>
        <phase duration="3"  state="rrryyyGrr"/>
    </tlLogic>
    <tlLogic id="P3" type="static" programID="0" offset="0">
        <phase duration="90" state="GG"/>
    </tlLogic>

    <junction id="P0" type="traffic_light" x="97.27" y="373.04" incLanes="E1_P1_P0_0 E0_P4_P0_0 E4_P5_P0_0" intLanes=":P0_0_0 :P0_1_0 :P0_9_0 :P0_3_0 :P0_4_0 :P0_10_0 :P0_6_0 :P0_7_0 :P0_11_0" shape="99.50,376.34 101.25,373.20 93.76,371.14 93.66,374.74 103.38,494.96 99.80,495.32">
        <request index="0" response="001000000" foes="101010000" cont="0"/>
        <request index="1" response="000000000" foes="011110000" cont="0"/>
        <request index="2" response="010001000" foes="010001000" cont="1"/>
        <request index="3" response="000000000" foes="010000100" cont="0"/>
        <request index="4" response="000000011" foes="110000011" cont="0"/>
        <request index="5" response="001000010" foes="001000010" cont="1"/>
        <request index="6" response="000000010" foes="000100011" cont="0"/>
        <request index="7" response="000011010" foes="000011110" cont="0"/>
        <request index="8" response="000010001" foes="000010001" cont="1"/>
    </junction>
    <junction id="P1" type="traffic_light" x="493.83" y="540.00" incLanes="E2_P2_P1_0 E5_P6_P1_0 E1_P0_P1_0" intLanes=":P1_0_0 :P1_9_0 :P1_10_0 :P1_3_0 :P1_4_0 :P1_11_0 :P1_6_0 :P1_7_0 :P1_12_0" shape="503.66,541.21 503.45,537.62 500.09,533.91 496.54,533.34 484.25,537.46 483.98,541.04">
        <request index="0" response="000000000" foes="100010000" cont="0"/>
        <request index="1" response="011000000" foes="011110000" cont="1"/>
        <request index="2" response="010001000" foes="010001000" cont="1"/>
        <request index="3" response="010000000" foes="010000100" cont="0"/>
        <request index="4" response="010000011" foes="110000011" cont="0"/>
        <request index="5" response="001000010" foes="001000010" cont="1"/>
        <request index="6" response="000000000" foes="000100010" cont="0"/>
        <request index="7" response="000000000" foes="000011110" cont="0"/>
        <request index="8" response="000010001" foes="000010001" cont="1"/>
    </junction>
    <junction id="P2" type="traffic_light" x="622.67" y="532.22" incLanes="E3_P3_P2_0 E6_P7_P2_0 E2_P1_P2_0" intLanes=":P2_0_0 :P2_9_0 :P2_10_0 :P2_3_0 :P2_4_0 :P2_11_0 :P2_6_0 :P2_7_0 :P2_12_0" shape="632.08,534.30 632.18,530.70 627.87,526.06 624.28,526.31 618.49,530.67 618.71,534.26">
        <request index="0" response="000000000" foes="100010000" cont="0"/>
        <request index="1" response="011000000" foes="011110000" cont="1"/>
        <request index="2" response="010001000" foes="010001000" cont="1"/>
        <request index="3" response="010000000" foes="010000100" cont="0"/>
        <request index="4" response="010000011" foes="110000011" cont="0"/>
        <request index="5" response="001000010" foes="001000010" cont="1"/>
        <request index="6" response="000000000" foes="000100010" cont="0"/>
        <request index="7" response="000000000" foes="000011110" cont="0"/>
        <request index="8" response="000010001" foes="000010001" cont="1"/>
    </junction>
    <junction id="P3" type="traffic_light" x="800.00" y="515.37" incLanes="E7_P8_P3_0 E3_P2_P3_0" intLanes=":P3_0_0 :P3_1_0" shape="799.45,515.44 795.85,515.38 797.43,518.62">
        <request index="0" response="00" foes="00" cont="0"/>
        <request index="1" response="00" foes="00" cont="0"/>
    </junction>
    <junction id="P4" type="priority" x="0.00" y="370.38" incLanes="E0_P0_P4_0" intLanes=":P4_0_0" shape="0.00,370.38 -0.05,372.18 0.00,370.38">
        <request index="0" response="0" foes="0" cont="0"/>
    </junction>
    <junction id="P5" type="priority" x="41.64" y="0.00" incLanes="E4_P0_P5_0" intLanes=":P5_0_0" shape="41.64,0.00 39.85,0.15 41.64,0.00">
        <request index="0" response="0" foes="0" cont="0"/>
    </junction>
    <junction id="P6" type="priority" x="494.98" y="0.00" incLanes="E5_P1_P6_0" intLanes=":P6_0_0" shape="494.98,0.00 493.23,0.42 494.98,0.00">
        <request index="0" response="0" foes="0" cont="0"/>
    </junction>
    <junction id="P7" type="priority" x="607.97" y="187.16" incLanes="E6_P2_P7_0" intLanes=":P7_0_0" shape="607.97,187.16 606.17,187.23 607.97,187.16">
        <request index="0" response="0" foes="0" cont="0"/>
    </junction>
    <junction id="P8" type="priority" x="789.21" y="187.16" incLanes="E7_P3_P8_0" intLanes=":P8_0_0" shape="789.21,187.16 787.41,187.26 789.21,187.16">
        <request index="0" response="0" foes="0" cont="0"/>
    </junction>

    <junction id=":P0_9_0" type="internal" x="100.40" y="374.02" incLanes=":P0_2_0 E0_P4_P0_0 E4_P5_P0_0" intLanes=":P0_3_0 :P0_7_0"/>
    <junction id=":P0_10_0" type="internal" x="93.99" y="373.65" incLanes=":P0_5_0 E1_P1_P0_0 E4_P5_P0_0" intLanes=":P0_1_0 :P0_6_0"/>
    <junction id=":P0_11_0" type="internal" x="102.36" y="495.28" incLanes=":P0_8_0 E0_P4_P0_0 E1_P1_P0_0" intLanes=":P0_0_0 :P0_4_0"/>
    <junction id=":P1_9_0" type="internal" x="498.58" y="538.94" incLanes=":P1_1_0 E1_P0_P1_0" intLanes=":P1_4_0 :P1_5_0 :P1_6_0 :P1_7_0"/>
    <junction id=":P1_10_0" type="internal" x="503.24" y="538.72" incLanes=":P1_2_0 E1_P0_P1_0 E5_P6_P1_0" intLanes=":P1_3_0 :P1_7_0"/>
    <junction id=":P1_11_0" type="internal" x="498.17" y="534.51" incLanes=":P1_5_0 E1_P0_P1_0 E2_P2_P1_0" intLanes=":P1_1_0 :P1_6_0"/>
    <junction id=":P1_12_0" type="internal" x="484.43" y="539.93" incLanes=":P1_8_0 E2_P2_P1_0 E5_P6_P1_0" intLanes=":P1_0_0 :P1_4_0"/>
    <junction id=":P2_9_0" type="internal" x="627.32" y="531.63" incLanes=":P2_1_0 E2_P1_P2_0" intLanes=":P2_4_0 :P2_5_0 :P2_6_0 :P2_7_0"/>
    <junction id=":P2_10_0" type="internal" x="631.83" y="531.80" incLanes=":P2_2_0 E2_P1_P2_0 E6_P7_P2_0" intLanes=":P2_3_0 :P2_7_0"/>
    <junction id=":P2_11_0" type="internal" x="626.13" y="527.08" incLanes=":P2_5_0 E2_P1_P2_0 E3_P3_P2_0" intLanes=":P2_1_0 :P2_6_0"/>
    <junction id=":P2_12_0" type="internal" x="618.93" y="533.16" incLanes=":P2_8_0 E3_P3_P2_0 E6_P7_P2_0" intLanes=":P2_0_0 :P2_4_0"/>

    <connection from="E0_P0_P4" to="E0_P4_P0" fromLane="0" toLane="0" via=":P4_0_0" dir="t" state="M"/>
    <connection from="E0_P4_P0" to="E1_P0_P1" fromLane="0" toLane="0" via=":P0_3_0" tl="P0" linkIndex="3" dir="s" state="O"/>
    <connection from="E0_P4_P0" to="E4_P0_P5" fromLane="0" toLane="0" via=":P0_4_0" tl="P0" linkIndex="4" dir="r" state="o"/>
    <connection from="E0_P4_P0" to="E0_P0_P4" fromLane="0" toLane="0" via=":P0_5_0" tl="P0" linkIndex="5" dir="t" state="o"/>
    <connection from="E1_P0_P1" to="E5_P1_P6" fromLane="0" toLane="0" via=":P1_6_0" tl="P1" linkIndex="6" dir="r" state="O"/>
    <connection from="E1_P0_P1" to="E2_P1_P2" fromLane="0" toLane="0" via=":P1_7_0" tl="P1" linkIndex="7" dir="s" state="O"/>
    <connection from="E1_P0_P1" to="E1_P1_P0" fromLane="0" toLane="0" via=":P1_8_0" tl="P1" linkIndex="8" dir="t" state="o"/>
    <connection from="E1_P1_P0" to="E4_P0_P5" fromLane="0" toLane="0" via=":P0_0_0" tl="P0" linkIndex="0" dir="L" state="O"/>
    <connection from="E1_P1_P0" to="E0_P0_P4" fromLane="0" toLane="0" via=":P0_1_0" tl="P0" linkIndex="1" dir="s" state="O"/>
    <connection from="E1_P1_P0" to="E1_P0_P1" fromLane="0" toLane="0" via=":P0_2_0" tl="P0" linkIndex="2" dir="t" state="o"/>
    <connection from="E2_P1_P2" to="E6_P2_P7" fromLane="0" toLane="0" via=":P2_6_0" tl="P2" linkIndex="6" dir="r" state="O"/>
    <connection from="E2_P1_P2" to="E3_P2_P3" fromLane="0" toLane="0" via=":P2_7_0" tl="P2" linkIndex="7" dir="s" state="O"/>
    <connection from="E2_P1_P2" to="E2_P2_P1" fromLane="0" toLane="0" via=":P2_8_0" tl="P2" linkIndex="8" dir="t" state="o"/>
    <connection from="E2_P2_P1" to="E1_P1_P0" fromLane="0" toLane="0" via=":P1_0_0" tl="P1" linkIndex="0" dir="s" state="O"/>
    <connection from="E2_P2_P1" to="E5_P1_P6" fromLane="0" toLane="0" via=":P1_1_0" tl="P1" linkIndex="1" dir="l" state="o"/>
    <connection from="E2_P2_P1" to="E2_P1_P2" fromLane="0" toLane="0" via=":P1_2_0" tl="P1" linkIndex="2" dir="t" state="o"/>
    <connection from="E3_P2_P3" to="E7_P3_P8" fromLane="0" toLane="0" via=":P3_1_0" tl="P3" linkIndex="1" dir="r" state="O"/>
    <connection from="E3_P3_P2" to="E2_P2_P1" fromLane="0" toLane="0" via=":P2_0_0" tl="P2" linkIndex="0" dir="s" state="O"/>
    <connection from="E3_P3_P2" to="E6_P2_P7" fromLane="0" toLane="0" via=":P2_1_0" tl="P2" linkIndex="1" dir="l" state="o"/>
    <connection from="E3_P3_P2" to="E3_P2_P3" fromLane="0" toLane="0" via=":P2_2_0" tl="P2" linkIndex="2" dir="t" state="o"/>
    <connection from="E4_P0_P5" to="E4_P5_P0" fromLane="0" toLane="0" via=":P5_0_0" dir="t" state="M"/>
    <connection from="E4_P5_P0" to="E0_P0_P4" fromLane="0" toLane="0" via=":P0_6_0" tl="P0" linkIndex="6" dir="l" state="o"/>
    <connection from="E4_P5_P0" to="E1_P0_P1" fromLane="0" toLane="0" via=":P0_7_0" tl="P0" linkIndex="7" dir="R" state="o"/>
    <connection from="E4_P5_P0" to="E4_P0_P5" fromLane="0" toLane="0" via=":P0_8_0" tl="P0" linkIndex="8" dir="t" state="o"/>
    <connection from="E5_P1_P6" to="E5_P6_P1" fromLane="0" toLane="0" via=":P6_0_0" dir="t" state="M"/>
    <connection from="E5_P6_P1" to="E2_P1_P2" fromLane="0" toLane="0" via=":P1_3_0" tl="P1" linkIndex="3" dir="r" state="o"/>
    <connection from="E5_P6_P1" to="E1_P1_P0" fromLane="0" toLane="0" via=":P1_4_0" tl="P1" linkIndex="4" dir="l" state="o"/>
    <connection from="E5_P6_P1" to="E5_P1_P6" fromLane="0" toLane="0" via=":P1_5_0" tl="P1" linkIndex="5" dir="t" state="o"/>
    <connection from="E6_P2_P7" to="E6_P7_P2" fromLane="0" toLane="0" via=":P7_0_0" dir="t" state="M"/>
    <connection from="E6_P7_P2" to="E3_P2_P3" fromLane="0" toLane="0" via=":P2_3_0" tl="P2" linkIndex="3" dir="r" state="o"/>
    <connection from="E6_P7_P2" to="E2_P2_P1" fromLane="0" toLane="0" via=":P2_4_0" tl="P2" linkIndex="4" dir="l" state="o"/>
    <connection from="E6_P7_P2" to="E6_P2_P7" fromLane="0" toLane="0" via=":P2_5_0" tl="P2" linkIndex="5" dir="t" state="o"/>
    <connection from="E7_P3_P8" to="E7_P8_P3" fromLane="0" toLane="0" via=":P8_0_0" dir="t" state="M"/>
    <connection from="E7_P8_P3" to="E3_P3_P2" fromLane="0" toLane="0" via=":P3_0_0" tl="P3" linkIndex="0" dir="l" state="O"/>

    <connection from=":P0_0" to="E4_P0_P5" fromLane="0" toLane="0" dir="L" state="M"/>
    <connection from=":P0_1" to="E0_P0_P4" fromLane="0" toLane="0" dir="s" state="M"/>
    <connection from=":P0_2" to="E1_P0_P1" fromLane="0" toLane="0" via=":P0_9_0" dir="t" state="m"/>
    <connection from=":P0_9" to="E1_P0_P1" fromLane="0" toLane="0" dir="t" state="M"/>
    <connection from=":P0_3" to="E1_P0_P1" fromLane="0" toLane="0" dir="s" state="M"/>
    <connection from=":P0_4" to="E4_P0_P5" fromLane="0" toLane="0" dir="r" state="M"/>
    <connection from=":P0_5" to="E0_P0_P4" fromLane="0" toLane="0" via=":P0_10_0" dir="t" state="m"/>
    <connection from=":P0_10" to="E0_P0_P4" fromLane="0" toLane="0" dir="t" state="M"/>
    <connection from=":P0_6" to="E0_P0_P4" fromLane="0" toLane="0" dir="l" state="M"/>
    <connection from=":P0_7" to="E1_P0_P1" fromLane="0" toLane="0" dir="R" state="M"/>
    <connection from=":P0_8" to="E4_P0_P5" fromLane="0" toLane="0" via=":P0_11_0" dir="t" state="m"/>
    <connection from=":P0_11" to="E4_P0_P5" fromLane="0" toLane="0" dir="t" state="M"/>
    <connection from=":P1_0" to="E1_P1_P0" fromLane="0" toLane="0" dir="s" state="M"/>
    <connection from=":P1_1" to="E5_P1_P6" fromLane="0" toLane="0" via=":P1_9_0" dir="l" state="m"/>
    <connection from=":P1_9" to="E5_P1_P6" fromLane="0" toLane="0" dir="l" state="M"/>
    <connection from=":P1_2" to="E2_P1_P2" fromLane="0" toLane="0" via=":P1_10_0" dir="t" state="m"/>
    <connection from=":P1_10" to="E2_P1_P2" fromLane="0" toLane="0" dir="t" state="M"/>
    <connection from=":P1_3" to="E2_P1_P2" fromLane="0" toLane="0" dir="r" state="M"/>
    <connection from=":P1_4" to="E1_P1_P0" fromLane="0" toLane="0" dir="l" state="M"/>
    <connection from=":P1_5" to="E5_P1_P6" fromLane="0" toLane="0" via=":P1_11_0" dir="t" state="m"/>
    <connection from=":P1_11" to="E5_P1_P6" fromLane="0" toLane="0" dir="t" state="M"/>
    <connection from=":P1_6" to="E5_P1_P6" fromLane="0" toLane="0" dir="r" state="M"/>
    <connection from=":P1_7" to="E2_P1_P2" fromLane="0" toLane="0" dir="s" state="M"/>
    <connection from=":P1_8" to="E1_P1_P0" fromLane="0" toLane="0" via=":P1_12_0" dir="t" state="m"/>
    <connection from=":P1_12" to="E1_P1_P0" fromLane="0" toLane="0" dir="t" state="M"/>
    <connection from=":P2_0" to="E2_P2_P1" fromLane="0" toLane="0" dir="s" state="M"/>
    <connection from=":P2_1" to="E6_P2_P7" fromLane="0" toLane="0" via=":P2_9_0" dir="l" state="m"/>
    <connection from=":P2_9" to="E6_P2_P7" fromLane="0" toLane="0" dir="l" state="M"/>
    <connection from=":P2_2" to="E3_P2_P3" fromLane="0" toLane="0" via=":P2_10_0" dir="t" state="m"/>
    <connection from=":P2_10" to="E3_P2_P3" fromLane="0" toLane="0" dir="t" state="M"/>
    <connection from=":P2_3" to="E3_P2_P3" fromLane="0" toLane="0" dir="r" state="M"/>
    <connection from=":P2_4" to="E2_P2_P1" fromLane="0" toLane="0" dir="l" state="M"/>
    <connection from=":P2_5" to="E6_P2_P7" fromLane="0" toLane="0" via=":P2_11_0" dir="t" state="m"/>
    <connection from=":P2_11" to="E6_P2_P7" fromLane="0" toLane="0" dir="t" state="M"/>
    <connection from=":P2_6" to="E6_P2_P7" fromLane="0" toLane="0" dir="r" state="M"/>
    <connection from=":P2_7" to="E3_P2_P3" fromLane="0" toLane="0" dir="s" state="M"/>
    <connection from=":P2_8" to="E2_P2_P1" fromLane="0" toLane="0" via=":P2_12_0" dir="t" state="m"/>
    <connection from=":P2_12" to="E2_P2_P1" fromLane="0" toLane="0" dir="t" state="M"/>
    <connection from=":P3_0" to="E3_P3_P2" fromLane="0" toLane="0" dir="l" state="M"/>
    <connection from=":P3_1" to="E7_P3_P8" fromLane="0" toLane="0" dir="r" state="M"/>
    <connection from=":P4_0" to="E0_P4_P0" fromLane="0" toLane="0" dir="t" state="M"/>
    <connection from=":P5_0" to="E4_P5_P0" fromLane="0" toLane="0" dir="t" state="M"/>
    <connection from=":P6_0" to="E5_P6_P1" fromLane="0" toLane="0" dir="t" state="M"/>
    <connection from=":P7_0" to="E6_P7_P2" fromLane="0" toLane="0" dir="t" state="M"/>
    <connection from=":P8_0" to="E7_P8_P3" fromLane="0" toLane="0" dir="t" state="M"/>

</net>
