<edges>
    <edge id="E0_P1_P0" from="P1" to="P0" numLanes="1" speed="13.9" shape="70.0,338.87 179.32,340.44 288.68,340.44 398.0,340.44 473.45,342.86"/>
    <edge id="E0_P0_P1" from="P0" to="P1" numLanes="1" speed="13.9" shape="473.45,342.86 398.0,340.44 288.68,340.44 179.32,340.44 70.0,338.87"/>
    <edge id="E1_P0_P2" from="P0" to="P2" numLanes="1" speed="13.9" shape="473.45,342.86 562.0,343.58 671.32,342.01 780.68,342.01 890.0,342.01"/>
    <edge id="E1_P2_P0" from="P2" to="P0" numLanes="1" speed="13.9" shape="890.0,342.01 780.68,342.01 671.32,342.01 562.0,343.58 473.45,342.86"/>
    <edge id="E2_P3_P0" from="P3" to="P0" numLanes="1" speed="13.9" shape="478.42,570.0 478.42,458.9 473.45,342.86"/>
    <edge id="E2_P0_P3" from="P0" to="P3" numLanes="1" speed="13.9" shape="473.45,342.86 478.42,458.9 478.42,570.0"/>
    <edge id="E3_P0_P4" from="P0" to="P4" numLanes="1" speed="13.9" shape="473.45,342.86 478.42,236.67 478.42,125.57 478.42,70.0"/>
    <edge id="E3_P4_P0" from="P4" to="P0" numLanes="1" speed="13.9" shape="478.42,70.0 478.42,125.57 478.42,236.67 473.45,342.86"/>
</edges>