<?xml version="1.0" encoding="UTF-8"?>

<!-- generated on 2026-04-12T11:47:40.408948+05:30 by Eclipse SUMO netconvert 1.26.0
<netconvertConfiguration xmlns:xsi="http://www.w3.org/2001/XMLSchema-instance" xsi:noNamespaceSchemaLocation="http://sumo.dlr.de/xsd/netconvertConfiguration.xsd">

    <input>
        <node-files value="C:\Users\santhosh\OneDrive\Desktop\trafiic pro\web_runs\20260412_114740_194938\area.nod.xml"/>
        <edge-files value="C:\Users\santhosh\OneDrive\Desktop\trafiic pro\web_runs\20260412_114740_194938\area.edg.xml"/>
    </input>

    <output>
        <output-file value="C:\Users\santhosh\OneDrive\Desktop\trafiic pro\web_runs\20260412_114740_194938\area.net.xml"/>
    </output>

    <building_defaults>
        <default.lanewidth value="1.5"/>
    </building_defaults>

    <junctions>
        <junctions.corner-detail value="0"/>
    </junctions>

</netconvertConfiguration>
-->

<net version="1.20" limitTurnSpeed="5.50" xmlns:xsi="http://www.w3.org/2001/XMLSchema-instance" xsi:noNamespaceSchemaLocation="http://sumo.dlr.de/xsd/net_file.xsd">

    <location netOffset="-70.00,-70.00" convBoundary="0.00,0.00,820.00,500.00" origBoundary="70.00,70.00,890.00,570.00" projParameter="!"/>

    <edge id=":P0_0" function="internal">
        <lane id=":P0_0_0" index="0" speed="6.12" length="7.95" width="1.50" shape="402.94,278.47 402.55,276.32 401.59,274.77 400.05,273.81 397.95,273.43"/>
    </edge>
    <edge id=":P0_1" function="internal">
        <lane id=":P0_1_0" index="0" speed="13.90" length="11.20" width="1.50" shape="402.94,278.47 402.82,275.31 402.78,272.87 402.83,270.43 402.96,267.27"/>
    </edge>
    <edge id=":P0_2" function="internal">
        <lane id=":P0_2_0" index="0" speed="6.56" length="4.75" width="1.50" shape="402.94,278.47 403.22,275.69 404.17,273.98"/>
    </edge>
    <edge id=":P0_3" function="internal">
        <lane id=":P0_3_0" index="0" speed="2.50" length="1.88" width="1.50" shape="402.94,278.47 403.29,277.89 403.66,277.68 404.04,277.86 404.25,278.15"/>
    </edge>
    <edge id=":P0_16" function="internal">
        <lane id=":P0_16_0" index="0" speed="6.56" length="5.38" width="1.50" shape="404.17,273.98 404.33,273.71 406.27,272.53 409.03,272.16"/>
    </edge>
    <edge id=":P0_17" function="internal">
        <lane id=":P0_17_0" index="0" speed="2.50" length="0.31" width="1.50" shape="404.25,278.15 404.44,278.40"/>
    </edge>
    <edge id=":P0_4" function="internal">
        <lane id=":P0_4_0" index="0" speed="5.73" length="7.61" width="1.50" shape="409.02,273.66 406.94,273.94 405.48,274.82 404.65,276.31 404.44,278.40"/>
    </edge>
    <edge id=":P0_5" function="internal">
        <lane id=":P0_5_0" index="0" speed="13.90" length="11.07" width="1.50" shape="409.02,273.66 397.95,273.43"/>
    </edge>
    <edge id=":P0_6" function="internal">
        <lane id=":P0_6_0" index="0" speed="6.59" length="4.77" width="1.50" shape="409.02,273.66 406.26,273.24 404.58,272.19"/>
    </edge>
    <edge id=":P0_7" function="internal">
        <lane id=":P0_7_0" index="0" speed="2.50" length="1.89" width="1.50" shape="409.02,273.66 408.46,273.28 408.28,272.90 408.47,272.53 408.78,272.32"/>
    </edge>
    <edge id=":P0_18" function="internal">
        <lane id=":P0_18_0" index="0" speed="6.59" length="5.36" width="1.50" shape="404.58,272.19 404.33,272.03 403.23,270.05 402.96,267.27"/>
    </edge>
    <edge id=":P0_19" function="internal">
        <lane id=":P0_19_0" index="0" speed="2.50" length="0.30" width="1.50" shape="408.78,272.32 409.03,272.16"/>
    </edge>
    <edge id=":P0_8" function="internal">
        <lane id=":P0_8_0" index="0" speed="5.77" length="7.64" width="1.50" shape="404.46,267.34 404.66,269.43 405.49,270.93 406.95,271.84 409.03,272.16"/>
    </edge>
    <edge id=":P0_9" function="internal">
        <lane id=":P0_9_0" index="0" speed="13.90" length="11.06" width="1.50" shape="404.46,267.34 404.33,270.47 404.28,272.87 404.32,275.27 404.44,278.40"/>
    </edge>
    <edge id=":P0_10" function="internal">
        <lane id=":P0_10_0" index="0" speed="6.72" length="4.72" width="1.50" shape="404.46,267.34 403.94,270.08 402.89,271.70"/>
    </edge>
    <edge id=":P0_11" function="internal">
        <lane id=":P0_11_0" index="0" speed="2.50" length="1.86" width="1.50" shape="404.46,267.34 404.06,267.89 403.67,268.06 403.31,267.85 403.13,267.56"/>
    </edge>
    <edge id=":P0_20" function="internal">
        <lane id=":P0_20_0" index="0" speed="6.72" length="5.41" width="1.50" shape="402.89,271.70 402.68,272.01 400.69,273.13 397.95,273.43"/>
    </edge>
    <edge id=":P0_21" function="internal">
        <lane id=":P0_21_0" index="0" speed="2.50" length="0.33" width="1.50" shape="403.13,267.56 402.96,267.27"/>
    </edge>
    <edge id=":P0_12" function="internal">
        <lane id=":P0_12_0" index="0" speed="5.91" length="7.74" width="1.50" shape="398.00,271.93 400.09,271.70 401.61,270.85 402.57,269.37 402.96,267.27"/>
    </edge>
    <edge id=":P0_13" function="internal">
        <lane id=":P0_13_0" index="0" speed="13.90" length="11.04" width="1.50" shape="398.00,271.93 409.03,272.16"/>
    </edge>
    <edge id=":P0_14" function="internal">
        <lane id=":P0_14_0" index="0" speed="6.91" length="4.71" width="1.50" shape="398.00,271.93 400.72,272.41 402.37,273.45"/>
    </edge>
    <edge id=":P0_15" function="internal">
        <lane id=":P0_15_0" index="0" speed="2.50" length="1.85" width="1.50" shape="398.00,271.93 398.55,272.33 398.72,272.71 398.52,273.08 398.24,273.25"/>
    </edge>
    <edge id=":P0_22" function="internal">
        <lane id=":P0_22_0" index="0" speed="6.91" length="5.53" width="1.50" shape="402.37,273.45 402.69,273.65 403.93,275.65 404.44,278.40"/>
    </edge>
    <edge id=":P0_23" function="internal">
        <lane id=":P0_23_0" index="0" speed="2.50" length="0.34" width="1.50" shape="398.24,273.25 397.95,273.43"/>
    </edge>
    <edge id=":P1_0" function="internal">
        <lane id=":P1_0_0" index="0" speed="2.50" length="2.19" width="1.50" shape="-0.01,269.62 -0.57,269.24 -0.75,268.86 -0.56,268.49 0.01,268.12"/>
    </edge>
    <edge id=":P2_0" function="internal">
        <lane id=":P2_0_0" index="0" speed="2.50" length="2.19" width="1.50" shape="820.00,271.26 820.56,271.63 820.75,272.01 820.56,272.38 820.00,272.76"/>
    </edge>
    <edge id=":P3_0" function="internal">
        <lane id=":P3_0_0" index="0" speed="2.50" length="2.19" width="1.50" shape="409.17,500.00 408.80,500.56 408.42,500.75 408.05,500.56 407.67,500.00"/>
    </edge>
    <edge id=":P4_0" function="internal">
        <lane id=":P4_0_0" index="0" speed="2.50" length="2.19" width="1.50" shape="407.67,0.00 408.05,-0.56 408.42,-0.75 408.80,-0.56 409.17,0.00"/>
    </edge>

    <edge id="E0_P0_P1" from="P0" to="P1" priority="-1" shape="403.45,272.86 328.00,270.44 218.68,270.44 109.32,270.44 0.00,268.87">
        <lane id="E0_P0_P1_0" index="0" speed="13.90" length="398.01" width="1.50" shape="397.95,273.43 327.99,271.19 218.68,271.19 109.31,271.19 -0.01,269.62"/>
    </edge>
    <edge id="E0_P1_P0" from="P1" to="P0" priority="-1" shape="0.00,268.87 109.32,270.44 218.68,270.44 328.00,270.44 403.45,272.86">
        <lane id="E0_P1_P0_0" index="0" speed="13.90" length="398.04" width="1.50" shape="0.01,268.12 109.33,269.69 218.68,269.69 328.01,269.69 398.00,271.93"/>
    </edge>
    <edge id="E1_P0_P2" from="P0" to="P2" priority="-1" shape="403.45,272.86 492.00,273.58 601.32,272.01 710.68,272.01 820.00,272.01">
        <lane id="E1_P0_P2_0" index="0" speed="13.90" length="410.98" width="1.50" shape="409.03,272.16 492.00,272.83 601.31,271.26 710.68,271.26 820.00,271.26"/>
    </edge>
    <edge id="E1_P2_P0" from="P2" to="P0" priority="-1" shape="820.00,272.01 710.68,272.01 601.32,272.01 492.00,273.58 403.45,272.86">
        <lane id="E1_P2_P0_0" index="0" speed="13.90" length="410.99" width="1.50" shape="820.00,272.76 710.68,272.76 601.33,272.76 492.00,274.33 409.02,273.66"/>
    </edge>
    <edge id="E2_P0_P3" from="P0" to="P3" priority="-1" shape="403.45,272.86 408.42,388.90 408.42,500.00">
        <lane id="E2_P0_P3_0" index="0" speed="13.90" length="221.70" width="1.50" shape="404.44,278.40 409.17,388.88 409.17,500.00"/>
    </edge>
    <edge id="E2_P3_P0" from="P3" to="P0" priority="-1" shape="408.42,500.00 408.42,388.90 403.45,272.86">
        <lane id="E2_P3_P0_0" index="0" speed="13.90" length="221.64" width="1.50" shape="407.67,500.00 407.67,388.92 402.94,278.47"/>
    </edge>
    <edge id="E3_P0_P4" from="P0" to="P4" priority="-1" shape="403.45,272.86 408.42,166.67 408.42,55.57 408.42,0.00">
        <lane id="E3_P0_P4_0" index="0" speed="13.90" length="267.38" width="1.50" shape="402.96,267.27 407.67,166.65 407.67,55.57 407.67,0.00"/>
    </edge>
    <edge id="E3_P4_P0" from="P4" to="P0" priority="-1" shape="408.42,0.00 408.42,55.57 408.42,166.67 403.45,272.86">
        <lane id="E3_P4_P0_0" index="0" speed="13.90" length="267.45" width="1.50" shape="409.17,0.00 409.17,55.57 409.17,166.69 404.46,267.34"/>
    </edge>

    <tlLogic id="P0" type="static" programID="0" offset="0">
        <phase duration="42" state="rrrrGGggrrrrGGgg"/>
        <phase duration="3"  state="rrrryyyyrrrryyyy"/>
        <phase duration="42" state="GGggrrrrGGggrrrr"/>
        <phase duration="3"  state="yyyyrrrryyyyrrrr"/>
    </tlLogic>

    <junction id="P0" type="traffic_light" x="403.45" y="272.86" incLanes="E2_P3_P0_0 E1_P2_P0_0 E3_P4_P0_0 E0_P1_P0_0" intLanes=":P0_0_0 :P0_1_0 :P0_16_0 :P0_17_0 :P0_4_0 :P0_5_0 :P0_18_0 :P0_19_0 :P0_8_0 :P0_9_0 :P0_20_0 :P0_21_0 :P0_12_0 :P0_13_0 :P0_22_0 :P0_23_0" shape="402.19,278.50 405.19,278.37 409.02,274.41 409.04,271.41 405.21,267.38 402.21,267.24 398.02,271.19 397.93,274.18">
        <request index="0"  response="0000000000100000" foes="1000010000100000" cont="0"/>
        <request index="1"  response="0111000001100000" foes="0111110001100000" cont="0"/>
        <request index="2"  response="0110001101100000" foes="0110001111100000" cont="1"/>
        <request index="3"  response="0100001000010000" foes="0100001000010000" cont="1"/>
        <request index="4"  response="0000000000000000" foes="0100001000001000" cont="0"/>
        <request index="5"  response="0000010000000100" foes="1100011000000111" cont="0"/>
        <request index="6"  response="0011010000000100" foes="0011111000000110" cont="1"/>
        <request index="7"  response="0010000100000100" foes="0010000100000100" cont="1"/>
        <request index="8"  response="0010000000000000" foes="0010000010000100" cont="0"/>
        <request index="9"  response="0110000001110000" foes="0110000001111100" cont="0"/>
        <request index="10" response="0110000001100011" foes="1110000001100011" cont="1"/>
        <request index="11" response="0001000001000010" foes="0001000001000010" cont="1"/>
        <request index="12" response="0000000000000000" foes="0000100001000010" cont="0"/>
        <request index="13" response="0000010000000100" foes="0000011111000110" cont="0"/>
        <request index="14" response="0000010000110100" foes="0000011000111110" cont="1"/>
        <request index="15" response="0000010000100001" foes="0000010000100001" cont="1"/>
    </junction>
    <junction id="P1" type="priority" x="0.00" y="268.87" incLanes="E0_P0_P1_0" intLanes=":P1_0_0" shape="-0.00,268.87 -0.02,270.37 0.00,268.87">
        <request index="0" response="0" foes="0" cont="0"/>
    </junction>
    <junction id="P2" type="priority" x="820.00" y="272.01" incLanes="E1_P0_P2_0" intLanes=":P2_0_0" shape="820.00,272.01 820.00,270.51 820.00,272.01">
        <request index="0" response="0" foes="0" cont="0"/>
    </junction>
    <junction id="P3" type="priority" x="408.42" y="500.00" incLanes="E2_P0_P3_0" intLanes=":P3_0_0" shape="408.42,500.00 409.92,500.00 408.42,500.00">
        <request index="0" response="0" foes="0" cont="0"/>
    </junction>
    <junction id="P4" type="priority" x="408.42" y="0.00" incLanes="E3_P0_P4_0" intLanes=":P4_0_0" shape="408.42,0.00 406.92,0.00 408.42,0.00">
        <request index="0" response="0" foes="0" cont="0"/>
    </junction>

    <junction id=":P0_16_0" type="internal" x="404.17" y="273.98" incLanes=":P0_2_0 E3_P4_P0_0" intLanes=":P0_5_0 :P0_6_0 :P0_7_0 :P0_8_0 :P0_9_0 :P0_13_0 :P0_14_0"/>
    <junction id=":P0_17_0" type="internal" x="404.25" y="278.15" incLanes=":P0_3_0 E0_P1_P0_0 E1_P2_P0_0 E3_P4_P0_0" intLanes=":P0_4_0 :P0_9_0 :P0_14_0"/>
    <junction id=":P0_18_0" type="internal" x="404.58" y="272.19" incLanes=":P0_6_0 E0_P1_P0_0" intLanes=":P0_1_0 :P0_2_0 :P0_9_0 :P0_10_0 :P0_11_0 :P0_12_0 :P0_13_0"/>
    <junction id=":P0_19_0" type="internal" x="408.78" y="272.32" incLanes=":P0_7_0 E0_P1_P0_0 E2_P3_P0_0 E3_P4_P0_0" intLanes=":P0_2_0 :P0_8_0 :P0_13_0"/>
    <junction id=":P0_20_0" type="internal" x="402.89" y="271.70" incLanes=":P0_10_0 E2_P3_P0_0" intLanes=":P0_0_0 :P0_1_0 :P0_5_0 :P0_6_0 :P0_13_0 :P0_14_0 :P0_15_0"/>
    <junction id=":P0_21_0" type="internal" x="403.13" y="267.56" incLanes=":P0_11_0 E0_P1_P0_0 E1_P2_P0_0 E2_P3_P0_0" intLanes=":P0_1_0 :P0_6_0 :P0_12_0"/>
    <junction id=":P0_22_0" type="internal" x="402.37" y="273.45" incLanes=":P0_14_0 E1_P2_P0_0" intLanes=":P0_1_0 :P0_2_0 :P0_3_0 :P0_4_0 :P0_5_0 :P0_9_0 :P0_10_0"/>
    <junction id=":P0_23_0" type="internal" x="398.24" y="273.25" incLanes=":P0_15_0 E1_P2_P0_0 E2_P3_P0_0 E3_P4_P0_0" intLanes=":P0_0_0 :P0_5_0 :P0_10_0"/>

    <connection from="E0_P0_P1" to="E0_P1_P0" fromLane="0" toLane="0" via=":P1_0_0" dir="t" state="M"/>
    <connection from="E0_P1_P0" to="E3_P0_P4" fromLane="0" toLane="0" via=":P0_12_0" tl="P0" linkIndex="12" dir="r" state="O"/>
    <connection from="E0_P1_P0" to="E1_P0_P2" fromLane="0" toLane="0" via=":P0_13_0" tl="P0" linkIndex="13" dir="s" state="O"/>
    <connection from="E0_P1_P0" to="E2_P0_P3" fromLane="0" toLane="0" via=":P0_14_0" tl="P0" linkIndex="14" dir="l" state="o"/>
    <connection from="E0_P1_P0" to="E0_P0_P1" fromLane="0" toLane="0" via=":P0_15_0" tl="P0" linkIndex="15" dir="t" state="o"/>
    <connection from="E1_P0_P2" to="E1_P2_P0" fromLane="0" toLane="0" via=":P2_0_0" dir="t" state="M"/>
    <connection from="E1_P2_P0" to="E2_P0_P3" fromLane="0" toLane="0" via=":P0_4_0" tl="P0" linkIndex="4" dir="r" state="O"/>
    <connection from="E1_P2_P0" to="E0_P0_P1" fromLane="0" toLane="0" via=":P0_5_0" tl="P0" linkIndex="5" dir="s" state="O"/>
    <connection from="E1_P2_P0" to="E3_P0_P4" fromLane="0" toLane="0" via=":P0_6_0" tl="P0" linkIndex="6" dir="l" state="o"/>
    <connection from="E1_P2_P0" to="E1_P0_P2" fromLane="0" toLane="0" via=":P0_7_0" tl="P0" linkIndex="7" dir="t" state="o"/>
    <connection from="E2_P0_P3" to="E2_P3_P0" fromLane="0" toLane="0" via=":P3_0_0" dir="t" state="M"/>
    <connection from="E2_P3_P0" to="E0_P0_P1" fromLane="0" toLane="0" via=":P0_0_0" tl="P0" linkIndex="0" dir="r" state="o"/>
    <connection from="E2_P3_P0" to="E3_P0_P4" fromLane="0" toLane="0" via=":P0_1_0" tl="P0" linkIndex="1" dir="s" state="o"/>
    <connection from="E2_P3_P0" to="E1_P0_P2" fromLane="0" toLane="0" via=":P0_2_0" tl="P0" linkIndex="2" dir="l" state="o"/>
    <connection from="E2_P3_P0" to="E2_P0_P3" fromLane="0" toLane="0" via=":P0_3_0" tl="P0" linkIndex="3" dir="t" state="o"/>
    <connection from="E3_P0_P4" to="E3_P4_P0" fromLane="0" toLane="0" via=":P4_0_0" dir="t" state="M"/>
    <connection from="E3_P4_P0" to="E1_P0_P2" fromLane="0" toLane="0" via=":P0_8_0" tl="P0" linkIndex="8" dir="r" state="o"/>
    <connection from="E3_P4_P0" to="E2_P0_P3" fromLane="0" toLane="0" via=":P0_9_0" tl="P0" linkIndex="9" dir="s" state="o"/>
    <connection from="E3_P4_P0" to="E0_P0_P1" fromLane="0" toLane="0" via=":P0_10_0" tl="P0" linkIndex="10" dir="l" state="o"/>
    <connection from="E3_P4_P0" to="E3_P0_P4" fromLane="0" toLane="0" via=":P0_11_0" tl="P0" linkIndex="11" dir="t" state="o"/>

    <connection from=":P0_0" to="E0_P0_P1" fromLane="0" toLane="0" dir="r" state="M"/>
    <connection from=":P0_1" to="E3_P0_P4" fromLane="0" toLane="0" dir="s" state="M"/>
    <connection from=":P0_2" to="E1_P0_P2" fromLane="0" toLane="0" via=":P0_16_0" dir="l" state="m"/>
    <connection from=":P0_16" to="E1_P0_P2" fromLane="0" toLane="0" dir="l" state="M"/>
    <connection from=":P0_3" to="E2_P0_P3" fromLane="0" toLane="0" via=":P0_17_0" dir="t" state="m"/>
    <connection from=":P0_17" to="E2_P0_P3" fromLane="0" toLane="0" dir="t" state="M"/>
    <connection from=":P0_4" to="E2_P0_P3" fromLane="0" toLane="0" dir="r" state="M"/>
    <connection from=":P0_5" to="E0_P0_P1" fromLane="0" toLane="0" dir="s" state="M"/>
    <connection from=":P0_6" to="E3_P0_P4" fromLane="0" toLane="0" via=":P0_18_0" dir="l" state="m"/>
    <connection from=":P0_18" to="E3_P0_P4" fromLane="0" toLane="0" dir="l" state="M"/>
    <connection from=":P0_7" to="E1_P0_P2" fromLane="0" toLane="0" via=":P0_19_0" dir="t" state="m"/>
    <connection from=":P0_19" to="E1_P0_P2" fromLane="0" toLane="0" dir="t" state="M"/>
    <connection from=":P0_8" to="E1_P0_P2" fromLane="0" toLane="0" dir="r" state="M"/>
    <connection from=":P0_9" to="E2_P0_P3" fromLane="0" toLane="0" dir="s" state="M"/>
    <connection from=":P0_10" to="E0_P0_P1" fromLane="0" toLane="0" via=":P0_20_0" dir="l" state="m"/>
    <connection from=":P0_20" to="E0_P0_P1" fromLane="0" toLane="0" dir="l" state="M"/>
    <connection from=":P0_11" to="E3_P0_P4" fromLane="0" toLane="0" via=":P0_21_0" dir="t" state="m"/>
    <connection from=":P0_21" to="E3_P0_P4" fromLane="0" toLane="0" dir="t" state="M"/>
    <connection from=":P0_12" to="E3_P0_P4" fromLane="0" toLane="0" dir="r" state="M"/>
    <connection from=":P0_13" to="E1_P0_P2" fromLane="0" toLane="0" dir="s" state="M"/>
    <connection from=":P0_14" to="E2_P0_P3" fromLane="0" toLane="0" via=":P0_22_0" dir="l" state="m"/>
    <connection from=":P0_22" to="E2_P0_P3" fromLane="0" toLane="0" dir="l" state="M"/>
    <connection from=":P0_15" to="E0_P0_P1" fromLane="0" toLane="0" via=":P0_23_0" dir="t" state="m"/>
    <connection from=":P0_23" to="E0_P0_P1" fromLane="0" toLane="0" dir="t" state="M"/>
    <connection from=":P1_0" to="E0_P1_P0" fromLane="0" toLane="0" dir="t" state="M"/>
    <connection from=":P2_0" to="E1_P2_P0" fromLane="0" toLane="0" dir="t" state="M"/>
    <connection from=":P3_0" to="E2_P3_P0" fromLane="0" toLane="0" dir="t" state="M"/>
    <connection from=":P4_0" to="E3_P4_P0" fromLane="0" toLane="0" dir="t" state="M"/>

</net>
