<edges>
    <edge id="J0_0_to_J0_1" from="J0_0" to="J0_1" numLanes="2" speed="13.9"/>
    <edge id="J0_1_to_J0_0" from="J0_1" to="J0_0" numLanes="2" speed="13.9"/>
    <edge id="J0_0_to_J1_0" from="J0_0" to="J1_0" numLanes="2" speed="13.9"/>
    <edge id="J1_0_to_J0_0" from="J1_0" to="J0_0" numLanes="2" speed="13.9"/>
    <edge id="J0_1_to_J1_1" from="J0_1" to="J1_1" numLanes="2" speed="13.9"/>
    <edge id="J1_1_to_J0_1" from="J1_1" to="J0_1" numLanes="2" speed="13.9"/>
    <edge id="J1_0_to_J1_1" from="J1_0" to="J1_1" numLanes="2" speed="13.9"/>
    <edge id="J1_1_to_J1_0" from="J1_1" to="J1_0" numLanes="2" speed="13.9"/>
</edges>