<?xml version="1.0" encoding="UTF-8"?>

<!-- generated on 2026-04-11T14:35:24.534406+05:30 by Eclipse SUMO netconvert 1.26.0
<netconvertConfiguration xmlns:xsi="http://www.w3.org/2001/XMLSchema-instance" xsi:noNamespaceSchemaLocation="http://sumo.dlr.de/xsd/netconvertConfiguration.xsd">

    <input>
        <node-files value="C:\Users\santhosh\OneDrive\Desktop\trafiic pro\web_runs\20260411_143515_507466\grid.nod.xml"/>
        <edge-files value="C:\Users\santhosh\OneDrive\Desktop\trafiic pro\web_runs\20260411_143515_507466\grid.edg.xml"/>
    </input>

    <output>
        <output-file value="C:\Users\santhosh\OneDrive\Desktop\trafiic pro\web_runs\20260411_143515_507466\grid.net.xml"/>
    </output>

</netconvertConfiguration>
-->

<net version="1.20" junctionCornerDetail="5" limitTurnSpeed="5.50" xmlns:xsi="http://www.w3.org/2001/XMLSchema-instance" xsi:noNamespaceSchemaLocation="http://sumo.dlr.de/xsd/net_file.xsd">

    <location netOffset="0.00,0.00" convBoundary="0.00,0.00,200.00,200.00" origBoundary="0.00,0.00,200.00,200.00" projParameter="!"/>

    <edge id=":J0_0_0" function="internal">
        <lane id=":J0_0_0_0" index="0" speed="8.96" length="18.06" shape="-4.80,6.40 -4.10,1.50 -2.00,-2.00 1.50,-4.10 6.40,-4.80"/>
        <lane id=":J0_0_0_1" index="1" speed="7.66" length="12.90" shape="-1.60,6.40 -1.10,2.90 0.40,0.40 2.90,-1.10 6.40,-1.60"/>
    </edge>
    <edge id=":J0_0_2" function="internal">
        <lane id=":J0_0_2_0" index="0" speed="3.90" length="2.58" shape="6.40,4.80 5.70,4.90 5.20,5.20 4.90,5.70 4.80,6.40"/>
        <lane id=":J0_0_2_1" index="1" speed="6.08" length="7.74" shape="6.40,1.60 4.30,1.90 2.80,2.80 1.90,4.30 1.60,6.40"/>
    </edge>
    <edge id=":J0_1_0" function="internal">
        <lane id=":J0_1_0_0" index="0" speed="3.90" length="2.58" shape="195.20,6.40 195.10,5.70 194.80,5.20 194.30,4.90 193.60,4.80"/>
        <lane id=":J0_1_0_1" index="1" speed="6.08" length="7.74" shape="198.40,6.40 198.10,4.30 197.20,2.80 195.70,1.90 193.60,1.60"/>
    </edge>
    <edge id=":J0_1_2" function="internal">
        <lane id=":J0_1_2_0" index="0" speed="8.96" length="18.06" shape="193.60,-4.80 198.50,-4.10 202.00,-2.00 204.10,1.50 204.80,6.40"/>
        <lane id=":J0_1_2_1" index="1" speed="7.66" length="12.90" shape="193.60,-1.60 197.10,-1.10 199.60,0.40 201.10,2.90 201.60,6.40"/>
    </edge>
    <edge id=":J1_0_0" function="internal">
        <lane id=":J1_0_0_0" index="0" speed="8.96" length="18.06" shape="6.40,204.80 1.50,204.10 -2.00,202.00 -4.10,198.50 -4.80,193.60"/>
        <lane id=":J1_0_0_1" index="1" speed="7.66" length="12.90" shape="6.40,201.60 2.90,201.10 0.40,199.60 -1.10,197.10 -1.60,193.60"/>
    </edge>
    <edge id=":J1_0_2" function="internal">
        <lane id=":J1_0_2_0" index="0" speed="3.90" length="2.58" shape="4.80,193.60 4.90,194.30 5.20,194.80 5.70,195.10 6.40,195.20"/>
        <lane id=":J1_0_2_1" index="1" speed="6.08" length="7.74" shape="1.60,193.60 1.90,195.70 2.80,197.20 4.30,198.10 6.40,198.40"/>
    </edge>
    <edge id=":J1_1_0" function="internal">
        <lane id=":J1_1_0_0" index="0" speed="8.96" length="18.06" shape="204.80,193.60 204.10,198.50 202.00,202.00 198.50,204.10 193.60,204.80"/>
        <lane id=":J1_1_0_1" index="1" speed="7.66" length="12.90" shape="201.60,193.60 201.10,197.10 199.60,199.60 197.10,201.10 193.60,201.60"/>
    </edge>
    <edge id=":J1_1_2" function="internal">
        <lane id=":J1_1_2_0" index="0" speed="3.90" length="2.58" shape="193.60,195.20 194.30,195.10 194.80,194.80 195.10,194.30 195.20,193.60"/>
        <lane id=":J1_1_2_1" index="1" speed="6.08" length="7.74" shape="193.60,198.40 195.70,198.10 197.20,197.20 198.10,195.70 198.40,193.60"/>
    </edge>

    <edge id="J0_0_to_J0_1" from="J0_0" to="J0_1" priority="-1">
        <lane id="J0_0_to_J0_1_0" index="0" speed="13.90" length="187.20" shape="6.40,-4.80 193.60,-4.80"/>
        <lane id="J0_0_to_J0_1_1" index="1" speed="13.90" length="187.20" shape="6.40,-1.60 193.60,-1.60"/>
    </edge>
    <edge id="J0_0_to_J1_0" from="J0_0" to="J1_0" priority="-1">
        <lane id="J0_0_to_J1_0_0" index="0" speed="13.90" length="187.20" shape="4.80,6.40 4.80,193.60"/>
        <lane id="J0_0_to_J1_0_1" index="1" speed="13.90" length="187.20" shape="1.60,6.40 1.60,193.60"/>
    </edge>
    <edge id="J0_1_to_J0_0" from="J0_1" to="J0_0" priority="-1">
        <lane id="J0_1_to_J0_0_0" index="0" speed="13.90" length="187.20" shape="193.60,4.80 6.40,4.80"/>
        <lane id="J0_1_to_J0_0_1" index="1" speed="13.90" length="187.20" shape="193.60,1.60 6.40,1.60"/>
    </edge>
    <edge id="J0_1_to_J1_1" from="J0_1" to="J1_1" priority="-1">
        <lane id="J0_1_to_J1_1_0" index="0" speed="13.90" length="187.20" shape="204.80,6.40 204.80,193.60"/>
        <lane id="J0_1_to_J1_1_1" index="1" speed="13.90" length="187.20" shape="201.60,6.40 201.60,193.60"/>
    </edge>
    <edge id="J1_0_to_J0_0" from="J1_0" to="J0_0" priority="-1">
        <lane id="J1_0_to_J0_0_0" index="0" speed="13.90" length="187.20" shape="-4.80,193.60 -4.80,6.40"/>
        <lane id="J1_0_to_J0_0_1" index="1" speed="13.90" length="187.20" shape="-1.60,193.60 -1.60,6.40"/>
    </edge>
    <edge id="J1_0_to_J1_1" from="J1_0" to="J1_1" priority="-1">
        <lane id="J1_0_to_J1_1_0" index="0" speed="13.90" length="187.20" shape="6.40,195.20 193.60,195.20"/>
        <lane id="J1_0_to_J1_1_1" index="1" speed="13.90" length="187.20" shape="6.40,198.40 193.60,198.40"/>
    </edge>
    <edge id="J1_1_to_J0_1" from="J1_1" to="J0_1" priority="-1">
        <lane id="J1_1_to_J0_1_0" index="0" speed="13.90" length="187.20" shape="195.20,193.60 195.20,6.40"/>
        <lane id="J1_1_to_J0_1_1" index="1" speed="13.90" length="187.20" shape="198.40,193.60 198.40,6.40"/>
    </edge>
    <edge id="J1_1_to_J1_0" from="J1_1" to="J1_0" priority="-1">
        <lane id="J1_1_to_J1_0_0" index="0" speed="13.90" length="187.20" shape="193.60,204.80 6.40,204.80"/>
        <lane id="J1_1_to_J1_0_1" index="1" speed="13.90" length="187.20" shape="193.60,201.60 6.40,201.60"/>
    </edge>

    <tlLogic id="J0_0" type="static" programID="0" offset="0">
        <phase duration="90" state="GGGG"/>
    </tlLogic>
    <tlLogic id="J0_1" type="static" programID="0" offset="0">
        <phase duration="90" state="GGGG"/>
    </tlLogic>
    <tlLogic id="J1_0" type="static" programID="0" offset="0">
        <phase duration="90" state="GGGG"/>
    </tlLogic>
    <tlLogic id="J1_1" type="static" programID="0" offset="0">
        <phase duration="90" state="GGGG"/>
    </tlLogic>

    <junction id="J0_0" type="traffic_light" x="0.00" y="0.00" incLanes="J1_0_to_J0_0_0 J1_0_to_J0_0_1 J0_1_to_J0_0_0 J0_1_to_J0_0_1" intLanes=":J0_0_0_0 :J0_0_0_1 :J0_0_2_0 :J0_0_2_1" shape="-6.40,6.40 6.40,6.40 6.40,-6.40 2.49,-6.04 -0.71,-4.98 -3.20,-3.20 -4.98,-0.71 -6.04,2.49">
        <request index="0" response="0000" foes="0000" cont="0"/>
        <request index="1" response="0000" foes="0000" cont="0"/>
        <request index="2" response="0000" foes="0000" cont="0"/>
        <request index="3" response="0000" foes="0000" cont="0"/>
    </junction>
    <junction id="J0_1" type="traffic_light" x="200.00" y="0.00" incLanes="J1_1_to_J0_1_0 J1_1_to_J0_1_1 J0_0_to_J0_1_0 J0_0_to_J0_1_1" intLanes=":J0_1_0_0 :J0_1_0_1 :J0_1_2_0 :J0_1_2_1" shape="193.60,6.40 206.40,6.40 206.04,2.49 204.98,-0.71 203.20,-3.20 200.71,-4.98 197.51,-6.04 193.60,-6.40">
        <request index="0" response="0000" foes="0000" cont="0"/>
        <request index="1" response="0000" foes="0000" cont="0"/>
        <request index="2" response="0000" foes="0000" cont="0"/>
        <request index="3" response="0000" foes="0000" cont="0"/>
    </junction>
    <junction id="J1_0" type="traffic_light" x="0.00" y="200.00" incLanes="J1_1_to_J1_0_0 J1_1_to_J1_0_1 J0_0_to_J1_0_0 J0_0_to_J1_0_1" intLanes=":J1_0_0_0 :J1_0_0_1 :J1_0_2_0 :J1_0_2_1" shape="6.40,206.40 6.40,193.60 -6.40,193.60 -6.04,197.51 -4.98,200.71 -3.20,203.20 -0.71,204.98 2.49,206.04">
        <request index="0" response="0000" foes="0000" cont="0"/>
        <request index="1" response="0000" foes="0000" cont="0"/>
        <request index="2" response="0000" foes="0000" cont="0"/>
        <request index="3" response="0000" foes="0000" cont="0"/>
    </junction>
    <junction id="J1_1" type="traffic_light" x="200.00" y="200.00" incLanes="J0_1_to_J1_1_0 J0_1_to_J1_1_1 J1_0_to_J1_1_0 J1_0_to_J1_1_1" intLanes=":J1_1_0_0 :J1_1_0_1 :J1_1_2_0 :J1_1_2_1" shape="206.40,193.60 193.60,193.60 193.60,206.40 197.51,206.04 200.71,204.98 203.20,203.20 204.98,200.71 206.04,197.51">
        <request index="0" response="0000" foes="0000" cont="0"/>
        <request index="1" response="0000" foes="0000" cont="0"/>
        <request index="2" response="0000" foes="0000" cont="0"/>
        <request index="3" response="0000" foes="0000" cont="0"/>
    </junction>

    <connection from="J0_0_to_J0_1" to="J0_1_to_J1_1" fromLane="0" toLane="0" via=":J0_1_2_0" tl="J0_1" linkIndex="2" dir="l" state="O"/>
    <connection from="J0_0_to_J0_1" to="J0_1_to_J1_1" fromLane="1" toLane="1" via=":J0_1_2_1" tl="J0_1" linkIndex="3" dir="l" state="O"/>
    <connection from="J0_0_to_J1_0" to="J1_0_to_J1_1" fromLane="0" toLane="0" via=":J1_0_2_0" tl="J1_0" linkIndex="2" dir="r" state="O"/>
    <connection from="J0_0_to_J1_0" to="J1_0_to_J1_1" fromLane="1" toLane="1" via=":J1_0_2_1" tl="J1_0" linkIndex="3" dir="r" state="O"/>
    <connection from="J0_1_to_J0_0" to="J0_0_to_J1_0" fromLane="0" toLane="0" via=":J0_0_2_0" tl="J0_0" linkIndex="2" dir="r" state="O"/>
    <connection from="J0_1_to_J0_0" to="J0_0_to_J1_0" fromLane="1" toLane="1" via=":J0_0_2_1" tl="J0_0" linkIndex="3" dir="r" state="O"/>
    <connection from="J0_1_to_J1_1" to="J1_1_to_J1_0" fromLane="0" toLane="0" via=":J1_1_0_0" tl="J1_1" linkIndex="0" dir="l" state="O"/>
    <connection from="J0_1_to_J1_1" to="J1_1_to_J1_0" fromLane="1" toLane="1" via=":J1_1_0_1" tl="J1_1" linkIndex="1" dir="l" state="O"/>
    <connection from="J1_0_to_J0_0" to="J0_0_to_J0_1" fromLane="0" toLane="0" via=":J0_0_0_0" tl="J0_0" linkIndex="0" dir="l" state="O"/>
    <connection from="J1_0_to_J0_0" to="J0_0_to_J0_1" fromLane="1" toLane="1" via=":J0_0_0_1" tl="J0_0" linkIndex="1" dir="l" state="O"/>
    <connection from="J1_0_to_J1_1" to="J1_1_to_J0_1" fromLane="0" toLane="0" via=":J1_1_2_0" tl="J1_1" linkIndex="2" dir="r" state="O"/>
    <connection from="J1_0_to_J1_1" to="J1_1_to_J0_1" fromLane="1" toLane="1" via=":J1_1_2_1" tl="J1_1" linkIndex="3" dir="r" state="O"/>
    <connection from="J1_1_to_J0_1" to="J0_1_to_J0_0" fromLane="0" toLane="0" via=":J0_1_0_0" tl="J0_1" linkIndex="0" dir="r" state="O"/>
    <connection from="J1_1_to_J0_1" to="J0_1_to_J0_0" fromLane="1" toLane="1" via=":J0_1_0_1" tl="J0_1" linkIndex="1" dir="r" state="O"/>
    <connection from="J1_1_to_J1_0" to="J1_0_to_J0_0" fromLane="0" toLane="0" via=":J1_0_0_0" tl="J1_0" linkIndex="0" dir="l" state="O"/>
    <connection from="J1_1_to_J1_0" to="J1_0_to_J0_0" fromLane="1" toLane="1" via=":J1_0_0_1" tl="J1_0" linkIndex="1" dir="l" state="O"/>

    <connection from=":J0_0_0" to="J0_0_to_J0_1" fromLane="0" toLane="0" dir="l" state="M"/>
    <connection from=":J0_0_0" to="J0_0_to_J0_1" fromLane="1" toLane="1" dir="l" state="M"/>
    <connection from=":J0_0_2" to="J0_0_to_J1_0" fromLane="0" toLane="0" dir="r" state="M"/>
    <connection from=":J0_0_2" to="J0_0_to_J1_0" fromLane="1" toLane="1" dir="r" state="M"/>
    <connection from=":J0_1_0" to="J0_1_to_J0_0" fromLane="0" toLane="0" dir="r" state="M"/>
    <connection from=":J0_1_0" to="J0_1_to_J0_0" fromLane="1" toLane="1" dir="r" state="M"/>
    <connection from=":J0_1_2" to="J0_1_to_J1_1" fromLane="0" toLane="0" dir="l" state="M"/>
    <connection from=":J0_1_2" to="J0_1_to_J1_1" fromLane="1" toLane="1" dir="l" state="M"/>
    <connection from=":J1_0_0" to="J1_0_to_J0_0" fromLane="0" toLane="0" dir="l" state="M"/>
    <connection from=":J1_0_0" to="J1_0_to_J0_0" fromLane="1" toLane="1" dir="l" state="M"/>
    <connection from=":J1_0_2" to="J1_0_to_J1_1" fromLane="0" toLane="0" dir="r" state="M"/>
    <connection from=":J1_0_2" to="J1_0_to_J1_1" fromLane="1" toLane="1" dir="r" state="M"/>
    <connection from=":J1_1_0" to="J1_1_to_J1_0" fromLane="0" toLane="0" dir="l" state="M"/>
    <connection from=":J1_1_0" to="J1_1_to_J1_0" fromLane="1" toLane="1" dir="l" state="M"/>
    <connection from=":J1_1_2" to="J1_1_to_J0_1" fromLane="0" toLane="0" dir="r" state="M"/>
    <connection from=":J1_1_2" to="J1_1_to_J0_1" fromLane="1" toLane="1" dir="r" state="M"/>

</net>
