<edges>
    <edge id="SE0_W0_J0_0" from="W0" to="J0_0" numLanes="1" speed="13.9" shape="180.0,925.43 437.6,951.8 694.82,988.56 952.42,997.5"/>
    <edge id="SE0_J0_0_W0" from="J0_0" to="W0" numLanes="1" speed="13.9" shape="952.42,997.5 694.82,988.56 437.6,951.8 180.0,925.43"/>
    <edge id="SE1_J0_0_E0" from="J0_0" to="E0" numLanes="1" speed="13.9" shape="1210.02,991.79 1467.62,953.85 1724.85,727.1 1982.45,692.53"/>
    <edge id="SE1_E0_J0_0" from="E0" to="J0_0" numLanes="1" speed="13.9" shape="1982.45,692.53 1724.85,727.1 1467.62,953.85 1210.02,991.79"/>
    <edge id="SE2_N0_J0_0" from="N0" to="J0_0" numLanes="1" speed="13.9" shape="1081.22,1220.0 1072.59,1073.52"/>
    <edge id="SE2_J0_0_N0" from="J0_0" to="N0" numLanes="1" speed="13.9" shape="1072.59,1073.52 1081.22,1220.0"/>
    <edge id="SE3_J0_0_S0" from="J0_0" to="S0" numLanes="1" speed="13.9" shape="1068.46,927.04 1282.5,780.56 1444.72,634.08 1236.31,487.61 1206.64,341.13 1196.88,194.65"/>
    <edge id="SE3_S0_J0_0" from="S0" to="J0_0" numLanes="1" speed="13.9" shape="1196.88,194.65 1206.64,341.13 1236.31,487.61 1444.72,634.08 1282.5,780.56 1068.46,927.04"/>
</edges>