<edges>
    <edge id="SE0_W0_J0_0" from="W0" to="J0_0" numLanes="1" speed="13.9" shape="180.0,748.53 436.74,743.91 693.49,817.64"/>
    <edge id="SE0_J0_0_W0" from="J0_0" to="W0" numLanes="1" speed="13.9" shape="693.49,817.64 436.74,743.91 180.0,748.53"/>
    <edge id="SE1_J0_0_E0" from="J0_0" to="E0" numLanes="1" speed="13.9" shape="950.23,829.42 1206.98,834.74 1463.72,807.93 1720.47,697.92 1977.21,410.42"/>
    <edge id="SE1_E0_J0_0" from="E0" to="J0_0" numLanes="1" speed="13.9" shape="1977.21,410.42 1720.47,697.92 1463.72,807.93 1206.98,834.74 950.23,829.42"/>
    <edge id="SE2_N0_J0_0" from="N0" to="J0_0" numLanes="1" speed="13.9" shape="1182.16,1220.0 1117.97,1074.63 1002.44,929.49"/>
    <edge id="SE2_J0_0_N0" from="J0_0" to="N0" numLanes="1" speed="13.9" shape="1002.44,929.49 1117.97,1074.63 1182.16,1220.0"/>
    <edge id="SE3_J0_0_S0" from="J0_0" to="S0" numLanes="1" speed="13.9" shape="903.59,784.12 975.48,638.99 1161.62,493.62 1500.09,348.48 1726.88,203.11"/>
    <edge id="SE3_S0_J0_0" from="S0" to="J0_0" numLanes="1" speed="13.9" shape="1726.88,203.11 1500.09,348.48 1161.62,493.62 975.48,638.99 903.59,784.12"/>
</edges>