<nodes>
    <node id="N" x="0" y="220" type="priority"/>
    <node id="S" x="0" y="-220" type="priority"/>
    <node id="E" x="220" y="0" type="priority"/>
    <node id="W" x="-220" y="0" type="priority"/>
    <node id="J0" x="0" y="0" type="traffic_light"/>
</nodes>