<routes>
    <vType id="passenger" accel="2.6" decel="4.5" sigma="0.5" length="5" maxSpeed="13.9"/>
    <vType id="emergency" accel="3.0" decel="5.0" sigma="0.2" length="5" maxSpeed="16.0" color="1,0,0"/>
    <route id="north_south" edges="N_to_J0 J0_to_S"/>
    <route id="south_north" edges="S_to_J0 J0_to_N"/>
    <route id="east_west" edges="E_to_J0 J0_to_W"/>
    <route id="west_east" edges="W_to_J0 J0_to_E"/>
    <route id="north_east" edges="N_to_J0 J0_to_E"/>
    <route id="south_west" edges="S_to_J0 J0_to_W"/>
    <route id="east_north" edges="E_to_J0 J0_to_N"/>
    <route id="west_south" edges="W_to_J0 J0_to_S"/>
    <vehicle id="veh0" type="passenger" route="west_south" depart="0.0"/>
    <vehicle id="veh1" type="passenger" route="west_south" depart="1.67"/>
    <vehicle id="veh2" type="passenger" route="west_east" depart="3.33"/>
    <vehicle id="veh3" type="passenger" route="west_south" depart="5.0"/>
    <vehicle id="veh4" type="passenger" route="east_west" depart="6.67"/>
    <vehicle id="veh5" type="passenger" route="north_east" depart="8.33"/>
    <vehicle id="veh6" type="passenger" route="north_south" depart="10.0"/>
    <vehicle id="veh7" type="passenger" route="east_north" depart="11.67"/>
    <vehicle id="veh8" type="passenger" route="east_west" depart="13.33"/>
    <vehicle id="veh9" type="passenger" route="south_north" depart="15.0"/>
    <vehicle id="veh10" type="passenger" route="west_east" depart="16.67"/>
    <vehicle id="veh11" type="passenger" route="north_south" depart="18.33"/>
    <vehicle id="veh12" type="passenger" route="south_west" depart="20.0"/>
    <vehicle id="veh13" type="passenger" route="west_east" depart="21.67"/>
    <vehicle id="veh14" type="passenger" route="north_east" depart="23.33"/>
    <vehicle id="veh15" type="passenger" route="south_north" depart="25.0"/>
    <vehicle id="veh16" type="passenger" route="north_east" depart="26.67"/>
    <vehicle id="veh17" type="passenger" route="south_north" depart="28.33"/>
    <vehicle id="veh18" type="passenger" route="south_west" depart="30.0"/>
    <vehicle id="veh19" type="passenger" route="north_east" depart="31.67"/>
    <vehicle id="veh20" type="passenger" route="south_north" depart="33.33"/>
    <vehicle id="veh21" type="passenger" route="north_east" depart="35.0"/>
    <vehicle id="veh22" type="passenger" route="north_south" depart="36.67"/>
    <vehicle id="veh23" type="passenger" route="north_south" depart="38.33"/>
    <vehicle id="veh24" type="passenger" route="north_south" depart="40.0"/>
    <vehicle id="veh25" type="passenger" route="east_north" depart="41.67"/>
    <vehicle id="veh26" type="passenger" route="west_east" depart="43.33"/>
    <vehicle id="veh27" type="passenger" route="north_east" depart="45.0"/>
    <vehicle id="veh28" type="passenger" route="north_east" depart="46.67"/>
    <vehicle id="veh29" type="passenger" route="east_north" depart="48.33"/>
    <vehicle id="veh30" type="passenger" route="south_north" depart="50.0"/>
    <vehicle id="veh31" type="emergency" route="south_north" depart="51.67"/>
    <vehicle id="veh32" type="passenger" route="west_south" depart="53.33"/>
    <vehicle id="veh33" type="passenger" route="east_west" depart="55.0"/>
    <vehicle id="veh34" type="passenger" route="west_east" depart="56.67"/>
    <vehicle id="veh35" type="passenger" route="west_east" depart="58.33"/>
    <vehicle id="veh36" type="passenger" route="east_west" depart="60.0"/>
    <vehicle id="veh37" type="passenger" route="east_north" depart="61.67"/>
    <vehicle id="veh38" type="passenger" route="east_north" depart="63.33"/>
    <vehicle id="veh39" type="passenger" route="north_south" depart="65.0"/>
    <vehicle id="veh40" type="passenger" route="north_east" depart="66.67"/>
    <vehicle id="veh41" type="passenger" route="north_south" depart="68.33"/>
    <vehicle id="veh42" type="passenger" route="east_north" depart="70.0"/>
    <vehicle id="veh43" type="passenger" route="south_north" depart="71.67"/>
    <vehicle id="veh44" type="passenger" route="east_west" depart="73.33"/>
    <vehicle id="veh45" type="emergency" route="north_east" depart="75.0"/>
    <vehicle id="veh46" type="passenger" route="south_west" depart="76.67"/>
    <vehicle id="veh47" type="passenger" route="east_north" depart="78.33"/>
    <vehicle id="veh48" type="passenger" route="south_north" depart="80.0"/>
    <vehicle id="veh49" type="emergency" route="west_east" depart="81.67"/>
    <vehicle id="veh50" type="passenger" route="south_west" depart="83.33"/>
    <vehicle id="veh51" type="passenger" route="west_south" depart="85.0"/>
    <vehicle id="veh52" type="passenger" route="west_south" depart="86.67"/>
    <vehicle id="veh53" type="passenger" route="east_west" depart="88.33"/>
    <vehicle id="veh54" type="passenger" route="east_west" depart="90.0"/>
    <vehicle id="veh55" type="passenger" route="north_east" depart="91.67"/>
    <vehicle id="veh56" type="passenger" route="west_east" depart="93.33"/>
    <vehicle id="veh57" type="passenger" route="east_west" depart="95.0"/>
    <vehicle id="veh58" type="passenger" route="west_east" depart="96.67"/>
    <vehicle id="veh59" type="passenger" route="east_north" depart="98.33"/>
    <vehicle id="veh60" type="passenger" route="south_north" depart="100.0"/>
    <vehicle id="veh61" type="passenger" route="south_north" depart="101.67"/>
    <vehicle id="veh62" type="passenger" route="north_east" depart="103.33"/>
    <vehicle id="veh63" type="passenger" route="east_north" depart="105.0"/>
    <vehicle id="veh64" type="passenger" route="west_south" depart="106.67"/>
    <vehicle id="veh65" type="passenger" route="east_west" depart="108.33"/>
    <vehicle id="veh66" type="passenger" route="south_north" depart="110.0"/>
    <vehicle id="veh67" type="passenger" route="west_south" depart="111.67"/>
    <vehicle id="veh68" type="passenger" route="south_north" depart="113.33"/>
    <vehicle id="veh69" type="passenger" route="west_east" depart="115.0"/>
    <vehicle id="veh70" type="passenger" route="south_north" depart="116.67"/>
    <vehicle id="veh71" type="passenger" route="west_south" depart="118.33"/>
    <vehicle id="veh72" type="passenger" route="north_south" depart="120.0"/>
    <vehicle id="veh73" type="passenger" route="south_west" depart="121.67"/>
    <vehicle id="veh74" type="passenger" route="east_west" depart="123.33"/>
    <vehicle id="veh75" type="passenger" route="east_west" depart="125.0"/>
    <vehicle id="veh76" type="passenger" route="south_west" depart="126.67"/>
    <vehicle id="veh77" type="passenger" route="east_west" depart="128.33"/>
    <vehicle id="veh78" type="passenger" route="north_south" depart="130.0"/>
    <vehicle id="veh79" type="passenger" route="south_west" depart="131.67"/>
    <vehicle id="veh80" type="passenger" route="north_south" depart="133.33"/>
    <vehicle id="veh81" type="passenger" route="south_north" depart="135.0"/>
    <vehicle id="veh82" type="passenger" route="north_east" depart="136.67"/>
    <vehicle id="veh83" type="passenger" route="south_north" depart="138.33"/>
    <vehicle id="veh84" type="passenger" route="south_west" depart="140.0"/>
    <vehicle id="veh85" type="passenger" route="east_west" depart="141.67"/>
    <vehicle id="veh86" type="passenger" route="south_west" depart="143.33"/>
    <vehicle id="veh87" type="passenger" route="west_south" depart="145.0"/>
    <vehicle id="veh88" type="passenger" route="east_north" depart="146.67"/>
    <vehicle id="veh89" type="passenger" route="north_south" depart="148.33"/>
    <vehicle id="veh90" type="passenger" route="north_south" depart="150.0"/>
    <vehicle id="veh91" type="passenger" route="east_north" depart="151.67"/>
    <vehicle id="veh92" type="passenger" route="north_south" depart="153.33"/>
    <vehicle id="veh93" type="passenger" route="south_north" depart="155.0"/>
    <vehicle id="veh94" type="passenger" route="south_north" depart="156.67"/>
    <vehicle id="veh95" type="passenger" route="east_north" depart="158.33"/>
    <vehicle id="veh96" type="passenger" route="east_north" depart="160.0"/>
    <vehicle id="veh97" type="passenger" route="west_south" depart="161.67"/>
    <vehicle id="veh98" type="passenger" route="south_north" depart="163.33"/>
    <vehicle id="veh99" type="passenger" route="north_south" depart="165.0"/>
    <vehicle id="veh100" type="passenger" route="south_north" depart="166.67"/>
    <vehicle id="veh101" type="passenger" route="west_east" depart="168.33"/>
    <vehicle id="veh102" type="passenger" route="south_north" depart="170.0"/>
    <vehicle id="veh103" type="passenger" route="west_south" depart="171.67"/>
    <vehicle id="veh104" type="passenger" route="north_south" depart="173.33"/>
    <vehicle id="veh105" type="passenger" route="east_west" depart="175.0"/>
    <vehicle id="veh106" type="passenger" route="west_east" depart="176.67"/>
    <vehicle id="veh107" type="passenger" route="south_west" depart="178.33"/>
    <vehicle id="veh108" type="passenger" route="west_south" depart="180.0"/>
    <vehicle id="veh109" type="passenger" route="west_east" depart="181.67"/>
    <vehicle id="veh110" type="passenger" route="north_east" depart="183.33"/>
    <vehicle id="veh111" type="passenger" route="east_north" depart="185.0"/>
    <vehicle id="veh112" type="passenger" route="west_east" depart="186.67"/>
    <vehicle id="veh113" type="passenger" route="east_north" depart="188.33"/>
    <vehicle id="veh114" type="passenger" route="south_west" depart="190.0"/>
    <vehicle id="veh115" type="passenger" route="east_west" depart="191.67"/>
    <vehicle id="veh116" type="passenger" route="north_south" depart="193.33"/>
    <vehicle id="veh117" type="passenger" route="north_east" depart="195.0"/>
    <vehicle id="veh118" type="passenger" route="south_north" depart="196.67"/>
    <vehicle id="veh119" type="passenger" route="north_east" depart="198.33"/>
    <vehicle id="veh120" type="passenger" route="east_north" depart="200.0"/>
    <vehicle id="veh121" type="passenger" route="west_south" depart="201.67"/>
    <vehicle id="veh122" type="passenger" route="west_south" depart="203.33"/>
    <vehicle id="veh123" type="passenger" route="north_south" depart="205.0"/>
    <vehicle id="veh124" type="passenger" route="north_south" depart="206.67"/>
    <vehicle id="veh125" type="passenger" route="north_east" depart="208.33"/>
    <vehicle id="veh126" type="passenger" route="north_east" depart="210.0"/>
    <vehicle id="veh127" type="passenger" route="north_south" depart="211.67"/>
    <vehicle id="veh128" type="passenger" route="east_north" depart="213.33"/>
    <vehicle id="veh129" type="passenger" route="north_south" depart="215.0"/>
    <vehicle id="veh130" type="passenger" route="north_east" depart="216.67"/>
    <vehicle id="veh131" type="passenger" route="east_west" depart="218.33"/>
    <vehicle id="veh132" type="passenger" route="south_north" depart="220.0"/>
    <vehicle id="veh133" type="passenger" route="south_west" depart="221.67"/>
    <vehicle id="veh134" type="passenger" route="west_east" depart="223.33"/>
    <vehicle id="veh135" type="passenger" route="west_south" depart="225.0"/>
    <vehicle id="veh136" type="passenger" route="north_south" depart="226.67"/>
    <vehicle id="veh137" type="passenger" route="north_south" depart="228.33"/>
    <vehicle id="veh138" type="passenger" route="north_east" depart="230.0"/>
    <vehicle id="veh139" type="passenger" route="east_west" depart="231.67"/>
    <vehicle id="veh140" type="passenger" route="west_east" depart="233.33"/>
    <vehicle id="veh141" type="passenger" route="east_north" depart="235.0"/>
    <vehicle id="veh142" type="passenger" route="west_south" depart="236.67"/>
    <vehicle id="veh143" type="passenger" route="north_south" depart="238.33"/>
    <vehicle id="veh144" type="passenger" route="south_west" depart="240.0"/>
    <vehicle id="veh145" type="passenger" route="west_east" depart="241.67"/>
    <vehicle id="veh146" type="passenger" route="south_north" depart="243.33"/>
    <vehicle id="veh147" type="passenger" route="east_north" depart="245.0"/>
    <vehicle id="veh148" type="passenger" route="north_east" depart="246.67"/>
    <vehicle id="veh149" type="passenger" route="south_west" depart="248.33"/>
    <vehicle id="veh150" type="passenger" route="north_south" depart="250.0"/>
    <vehicle id="veh151" type="passenger" route="south_north" depart="251.67"/>
    <vehicle id="veh152" type="passenger" route="south_west" depart="253.33"/>
    <vehicle id="veh153" type="passenger" route="north_east" depart="255.0"/>
    <vehicle id="veh154" type="passenger" route="north_south" depart="256.67"/>
    <vehicle id="veh155" type="passenger" route="south_north" depart="258.33"/>
    <vehicle id="veh156" type="passenger" route="north_south" depart="260.0"/>
    <vehicle id="veh157" type="passenger" route="south_west" depart="261.67"/>
    <vehicle id="veh158" type="passenger" route="east_west" depart="263.33"/>
    <vehicle id="veh159" type="passenger" route="west_south" depart="265.0"/>
    <vehicle id="veh160" type="passenger" route="west_south" depart="266.67"/>
    <vehicle id="veh161" type="passenger" route="south_north" depart="268.33"/>
    <vehicle id="veh162" type="passenger" route="west_south" depart="270.0"/>
    <vehicle id="veh163" type="passenger" route="north_east" depart="271.67"/>
    <vehicle id="veh164" type="passenger" route="east_west" depart="273.33"/>
    <vehicle id="veh165" type="passenger" route="north_east" depart="275.0"/>
    <vehicle id="veh166" type="passenger" route="east_north" depart="276.67"/>
    <vehicle id="veh167" type="passenger" route="west_east" depart="278.33"/>
    <vehicle id="veh168" type="passenger" route="east_west" depart="280.0"/>
    <vehicle id="veh169" type="passenger" route="north_east" depart="281.67"/>
    <vehicle id="veh170" type="passenger" route="west_east" depart="283.33"/>
    <vehicle id="veh171" type="passenger" route="south_north" depart="285.0"/>
    <vehicle id="veh172" type="passenger" route="east_north" depart="286.67"/>
    <vehicle id="veh173" type="passenger" route="north_south" depart="288.33"/>
    <vehicle id="veh174" type="passenger" route="east_north" depart="290.0"/>
    <vehicle id="veh175" type="passenger" route="south_north" depart="291.67"/>
    <vehicle id="veh176" type="passenger" route="east_west" depart="293.33"/>
    <vehicle id="veh177" type="passenger" route="west_south" depart="295.0"/>
    <vehicle id="veh178" type="passenger" route="east_north" depart="296.67"/>
    <vehicle id="veh179" type="passenger" route="west_south" depart="298.33"/>
    <vehicle id="veh180" type="passenger" route="south_west" depart="300.0"/>
    <vehicle id="veh181" type="passenger" route="west_south" depart="301.67"/>
    <vehicle id="veh182" type="passenger" route="south_north" depart="303.33"/>
    <vehicle id="veh183" type="passenger" route="north_south" depart="305.0"/>
    <vehicle id="veh184" type="passenger" route="east_west" depart="306.67"/>
    <vehicle id="veh185" type="passenger" route="north_south" depart="308.33"/>
    <vehicle id="veh186" type="passenger" route="east_west" depart="310.0"/>
    <vehicle id="veh187" type="passenger" route="north_east" depart="311.67"/>
    <vehicle id="veh188" type="passenger" route="south_west" depart="313.33"/>
    <vehicle id="veh189" type="passenger" route="west_south" depart="315.0"/>
    <vehicle id="veh190" type="passenger" route="south_north" depart="316.67"/>
    <vehicle id="veh191" type="passenger" route="north_east" depart="318.33"/>
    <vehicle id="veh192" type="passenger" route="east_north" depart="320.0"/>
    <vehicle id="veh193" type="passenger" route="east_north" depart="321.67"/>
    <vehicle id="veh194" type="passenger" route="east_west" depart="323.33"/>
    <vehicle id="veh195" type="passenger" route="west_east" depart="325.0"/>
    <vehicle id="veh196" type="passenger" route="east_west" depart="326.67"/>
    <vehicle id="veh197" type="passenger" route="south_west" depart="328.33"/>
    <vehicle id="veh198" type="passenger" route="south_west" depart="330.0"/>
    <vehicle id="veh199" type="passenger" route="west_east" depart="331.67"/>
    <vehicle id="veh200" type="passenger" route="west_east" depart="333.33"/>
    <vehicle id="veh201" type="passenger" route="east_west" depart="335.0"/>
    <vehicle id="veh202" type="passenger" route="east_west" depart="336.67"/>
    <vehicle id="veh203" type="passenger" route="north_east" depart="338.33"/>
    <vehicle id="veh204" type="passenger" route="east_north" depart="340.0"/>
    <vehicle id="veh205" type="passenger" route="east_north" depart="341.67"/>
    <vehicle id="veh206" type="passenger" route="east_west" depart="343.33"/>
    <vehicle id="veh207" type="passenger" route="north_south" depart="345.0"/>
    <vehicle id="veh208" type="passenger" route="south_west" depart="346.67"/>
    <vehicle id="veh209" type="passenger" route="south_west" depart="348.33"/>
    <vehicle id="veh210" type="passenger" route="south_west" depart="350.0"/>
    <vehicle id="veh211" type="passenger" route="west_east" depart="351.67"/>
    <vehicle id="veh212" type="passenger" route="west_south" depart="353.33"/>
    <vehicle id="veh213" type="passenger" route="north_south" depart="355.0"/>
    <vehicle id="veh214" type="passenger" route="west_south" depart="356.67"/>
    <vehicle id="veh215" type="passenger" route="east_west" depart="358.33"/>
    <vehicle id="veh216" type="passenger" route="east_west" depart="360.0"/>
    <vehicle id="veh217" type="passenger" route="north_east" depart="361.67"/>
    <vehicle id="veh218" type="passenger" route="south_north" depart="363.33"/>
    <vehicle id="veh219" type="passenger" route="east_west" depart="365.0"/>
    <vehicle id="veh220" type="passenger" route="west_south" depart="366.67"/>
    <vehicle id="veh221" type="passenger" route="south_north" depart="368.33"/>
    <vehicle id="veh222" type="passenger" route="west_south" depart="370.0"/>
    <vehicle id="veh223" type="passenger" route="south_west" depart="371.67"/>
    <vehicle id="veh224" type="emergency" route="south_west" depart="373.33"/>
    <vehicle id="veh225" type="passenger" route="north_south" depart="375.0"/>
    <vehicle id="veh226" type="passenger" route="east_west" depart="376.67"/>
    <vehicle id="veh227" type="passenger" route="south_west" depart="378.33"/>
    <vehicle id="veh228" type="passenger" route="east_north" depart="380.0"/>
    <vehicle id="veh229" type="passenger" route="east_west" depart="381.67"/>
    <vehicle id="veh230" type="passenger" route="north_south" depart="383.33"/>
    <vehicle id="veh231" type="passenger" route="south_north" depart="385.0"/>
    <vehicle id="veh232" type="passenger" route="east_north" depart="386.67"/>
    <vehicle id="veh233" type="passenger" route="west_east" depart="388.33"/>
    <vehicle id="veh234" type="passenger" route="south_west" depart="390.0"/>
    <vehicle id="veh235" type="passenger" route="north_east" depart="391.67"/>
    <vehicle id="veh236" type="passenger" route="south_north" depart="393.33"/>
    <vehicle id="veh237" type="passenger" route="east_west" depart="395.0"/>
    <vehicle id="veh238" type="passenger" route="east_north" depart="396.67"/>
    <vehicle id="veh239" type="passenger" route="south_west" depart="398.33"/>
    <vehicle id="veh240" type="passenger" route="south_west" depart="400.0"/>
    <vehicle id="veh241" type="passenger" route="east_west" depart="401.67"/>
    <vehicle id="veh242" type="passenger" route="east_west" depart="403.33"/>
    <vehicle id="veh243" type="passenger" route="south_west" depart="405.0"/>
    <vehicle id="veh244" type="emergency" route="south_north" depart="406.67"/>
    <vehicle id="veh245" type="passenger" route="south_west" depart="408.33"/>
    <vehicle id="veh246" type="passenger" route="north_south" depart="410.0"/>
    <vehicle id="veh247" type="passenger" route="north_east" depart="411.67"/>
    <vehicle id="veh248" type="passenger" route="east_north" depart="413.33"/>
    <vehicle id="veh249" type="passenger" route="south_north" depart="415.0"/>
    <vehicle id="veh250" type="passenger" route="west_south" depart="416.67"/>
    <vehicle id="veh251" type="passenger" route="south_north" depart="418.33"/>
    <vehicle id="veh252" type="passenger" route="north_south" depart="420.0"/>
    <vehicle id="veh253" type="passenger" route="south_north" depart="421.67"/>
    <vehicle id="veh254" type="passenger" route="north_east" depart="423.33"/>
    <vehicle id="veh255" type="passenger" route="north_south" depart="425.0"/>
    <vehicle id="veh256" type="emergency" route="east_north" depart="426.67"/>
    <vehicle id="veh257" type="passenger" route="north_east" depart="428.33"/>
    <vehicle id="veh258" type="passenger" route="south_west" depart="430.0"/>
    <vehicle id="veh259" type="passenger" route="east_north" depart="431.67"/>
    <vehicle id="veh260" type="passenger" route="south_north" depart="433.33"/>
    <vehicle id="veh261" type="passenger" route="south_north" depart="435.0"/>
    <vehicle id="veh262" type="passenger" route="north_south" depart="436.67"/>
    <vehicle id="veh263" type="passenger" route="east_west" depart="438.33"/>
    <vehicle id="veh264" type="passenger" route="east_west" depart="440.0"/>
    <vehicle id="veh265" type="passenger" route="north_south" depart="441.67"/>
    <vehicle id="veh266" type="passenger" route="west_south" depart="443.33"/>
    <vehicle id="veh267" type="passenger" route="east_north" depart="445.0"/>
    <vehicle id="veh268" type="passenger" route="south_west" depart="446.67"/>
    <vehicle id="veh269" type="passenger" route="west_south" depart="448.33"/>
    <vehicle id="veh270" type="passenger" route="north_east" depart="450.0"/>
    <vehicle id="veh271" type="passenger" route="north_east" depart="451.67"/>
    <vehicle id="veh272" type="passenger" route="west_east" depart="453.33"/>
    <vehicle id="veh273" type="passenger" route="east_west" depart="455.0"/>
    <vehicle id="veh274" type="passenger" route="east_north" depart="456.67"/>
    <vehicle id="veh275" type="passenger" route="south_west" depart="458.33"/>
    <vehicle id="veh276" type="passenger" route="north_south" depart="460.0"/>
    <vehicle id="veh277" type="passenger" route="south_west" depart="461.67"/>
    <vehicle id="veh278" type="passenger" route="west_east" depart="463.33"/>
    <vehicle id="veh279" type="passenger" route="west_south" depart="465.0"/>
    <vehicle id="veh280" type="passenger" route="west_east" depart="466.67"/>
    <vehicle id="veh281" type="passenger" route="south_north" depart="468.33"/>
    <vehicle id="veh282" type="passenger" route="west_south" depart="470.0"/>
    <vehicle id="veh283" type="passenger" route="west_east" depart="471.67"/>
    <vehicle id="veh284" type="passenger" route="south_north" depart="473.33"/>
    <vehicle id="veh285" type="passenger" route="east_north" depart="475.0"/>
    <vehicle id="veh286" type="passenger" route="west_east" depart="476.67"/>
    <vehicle id="veh287" type="passenger" route="south_west" depart="478.33"/>
    <vehicle id="veh288" type="passenger" route="south_north" depart="480.0"/>
    <vehicle id="veh289" type="passenger" route="east_west" depart="481.67"/>
    <vehicle id="veh290" type="passenger" route="west_south" depart="483.33"/>
    <vehicle id="veh291" type="passenger" route="east_north" depart="485.0"/>
    <vehicle id="veh292" type="passenger" route="east_west" depart="486.67"/>
    <vehicle id="veh293" type="passenger" route="east_west" depart="488.33"/>
    <vehicle id="veh294" type="passenger" route="south_north" depart="490.0"/>
    <vehicle id="veh295" type="passenger" route="north_east" depart="491.67"/>
    <vehicle id="veh296" type="passenger" route="south_west" depart="493.33"/>
    <vehicle id="veh297" type="passenger" route="west_east" depart="495.0"/>
    <vehicle id="veh298" type="passenger" route="west_east" depart="496.67"/>
    <vehicle id="veh299" type="passenger" route="west_east" depart="498.33"/>
    <vehicle id="veh300" type="passenger" route="west_east" depart="500.0"/>
    <vehicle id="veh301" type="passenger" route="north_south" depart="501.67"/>
    <vehicle id="veh302" type="passenger" route="north_south" depart="503.33"/>
    <vehicle id="veh303" type="passenger" route="east_north" depart="505.0"/>
    <vehicle id="veh304" type="passenger" route="north_south" depart="506.67"/>
    <vehicle id="veh305" type="passenger" route="north_east" depart="508.33"/>
    <vehicle id="veh306" type="passenger" route="south_north" depart="510.0"/>
    <vehicle id="veh307" type="passenger" route="east_west" depart="511.67"/>
    <vehicle id="veh308" type="passenger" route="south_west" depart="513.33"/>
    <vehicle id="veh309" type="passenger" route="south_west" depart="515.0"/>
    <vehicle id="veh310" type="passenger" route="south_west" depart="516.67"/>
    <vehicle id="veh311" type="passenger" route="east_west" depart="518.33"/>
    <vehicle id="veh312" type="passenger" route="south_north" depart="520.0"/>
    <vehicle id="veh313" type="passenger" route="west_south" depart="521.67"/>
    <vehicle id="veh314" type="passenger" route="west_east" depart="523.33"/>
    <vehicle id="veh315" type="passenger" route="north_east" depart="525.0"/>
    <vehicle id="veh316" type="passenger" route="east_west" depart="526.67"/>
    <vehicle id="veh317" type="passenger" route="south_west" depart="528.33"/>
    <vehicle id="veh318" type="passenger" route="east_west" depart="530.0"/>
    <vehicle id="veh319" type="passenger" route="south_west" depart="531.67"/>
    <vehicle id="veh320" type="passenger" route="west_south" depart="533.33"/>
    <vehicle id="veh321" type="passenger" route="south_north" depart="535.0"/>
    <vehicle id="veh322" type="passenger" route="east_north" depart="536.67"/>
    <vehicle id="veh323" type="passenger" route="west_south" depart="538.33"/>
    <vehicle id="veh324" type="passenger" route="west_south" depart="540.0"/>
    <vehicle id="veh325" type="passenger" route="north_south" depart="541.67"/>
    <vehicle id="veh326" type="passenger" route="west_east" depart="543.33"/>
    <vehicle id="veh327" type="passenger" route="south_north" depart="545.0"/>
    <vehicle id="veh328" type="passenger" route="west_south" depart="546.67"/>
    <vehicle id="veh329" type="passenger" route="south_west" depart="548.33"/>
    <vehicle id="veh330" type="passenger" route="east_west" depart="550.0"/>
    <vehicle id="veh331" type="passenger" route="south_west" depart="551.67"/>
    <vehicle id="veh332" type="passenger" route="south_north" depart="553.33"/>
    <vehicle id="veh333" type="passenger" route="west_south" depart="555.0"/>
    <vehicle id="veh334" type="passenger" route="north_east" depart="556.67"/>
    <vehicle id="veh335" type="passenger" route="north_east" depart="558.33"/>
    <vehicle id="veh336" type="passenger" route="west_east" depart="560.0"/>
    <vehicle id="veh337" type="passenger" route="west_east" depart="561.67"/>
    <vehicle id="veh338" type="passenger" route="south_west" depart="563.33"/>
    <vehicle id="veh339" type="passenger" route="east_north" depart="565.0"/>
    <vehicle id="veh340" type="passenger" route="west_east" depart="566.67"/>
    <vehicle id="veh341" type="passenger" route="south_west" depart="568.33"/>
    <vehicle id="veh342" type="passenger" route="east_west" depart="570.0"/>
    <vehicle id="veh343" type="passenger" route="east_west" depart="571.67"/>
    <vehicle id="veh344" type="passenger" route="west_south" depart="573.33"/>
    <vehicle id="veh345" type="passenger" route="north_east" depart="575.0"/>
    <vehicle id="veh346" type="passenger" route="west_east" depart="576.67"/>
    <vehicle id="veh347" type="passenger" route="east_west" depart="578.33"/>
    <vehicle id="veh348" type="passenger" route="north_south" depart="580.0"/>
    <vehicle id="veh349" type="passenger" route="east_north" depart="581.67"/>
    <vehicle id="veh350" type="passenger" route="north_east" depart="583.33"/>
    <vehicle id="veh351" type="passenger" route="south_north" depart="585.0"/>
    <vehicle id="veh352" type="passenger" route="north_east" depart="586.67"/>
    <vehicle id="veh353" type="passenger" route="south_west" depart="588.33"/>
    <vehicle id="veh354" type="passenger" route="east_west" depart="590.0"/>
    <vehicle id="veh355" type="passenger" route="east_north" depart="591.67"/>
    <vehicle id="veh356" type="passenger" route="west_east" depart="593.33"/>
    <vehicle id="veh357" type="passenger" route="south_west" depart="595.0"/>
    <vehicle id="veh358" type="passenger" route="east_north" depart="596.67"/>
    <vehicle id="veh359" type="passenger" route="south_west" depart="598.33"/>
    <vehicle id="veh360" type="passenger" route="west_south" depart="600.0"/>
    <vehicle id="veh361" type="passenger" route="south_north" depart="601.67"/>
    <vehicle id="veh362" type="passenger" route="north_south" depart="603.33"/>
    <vehicle id="veh363" type="passenger" route="south_west" depart="605.0"/>
    <vehicle id="veh364" type="passenger" route="east_north" depart="606.67"/>
    <vehicle id="veh365" type="passenger" route="west_south" depart="608.33"/>
    <vehicle id="veh366" type="passenger" route="north_south" depart="610.0"/>
    <vehicle id="veh367" type="passenger" route="north_south" depart="611.67"/>
    <vehicle id="veh368" type="passenger" route="east_north" depart="613.33"/>
    <vehicle id="veh369" type="passenger" route="east_west" depart="615.0"/>
    <vehicle id="veh370" type="passenger" route="east_west" depart="616.67"/>
    <vehicle id="veh371" type="passenger" route="east_north" depart="618.33"/>
    <vehicle id="veh372" type="passenger" route="south_west" depart="620.0"/>
    <vehicle id="veh373" type="passenger" route="east_north" depart="621.67"/>
    <vehicle id="veh374" type="passenger" route="north_east" depart="623.33"/>