<?xml version="1.0" encoding="UTF-8"?>

<!-- generated on 2026-04-11T14:32:23.435053+05:30 by Eclipse SUMO netconvert 1.26.0
<netconvertConfiguration xmlns:xsi="http://www.w3.org/2001/XMLSchema-instance" xsi:noNamespaceSchemaLocation="http://sumo.dlr.de/xsd/netconvertConfiguration.xsd">

    <input>
        <node-files value="C:\Users\santhosh\OneDrive\Desktop\trafiic pro\web_runs\20260411_143214_159451\cross.nod.xml"/>
        <edge-files value="C:\Users\santhosh\OneDrive\Desktop\trafiic pro\web_runs\20260411_143214_159451\cross.edg.xml"/>
    </input>

    <output>
        <output-file value="C:\Users\santhosh\OneDrive\Desktop\trafiic pro\web_runs\20260411_143214_159451\cross.net.xml"/>
    </output>

</netconvertConfiguration>
-->

<net version="1.20" junctionCornerDetail="5" limitTurnSpeed="5.50" xmlns:xsi="http://www.w3.org/2001/XMLSchema-instance" xsi:noNamespaceSchemaLocation="http://sumo.dlr.de/xsd/net_file.xsd">

    <location netOffset="220.00,220.00" convBoundary="0.00,0.00,440.00,440.00" origBoundary="-220.00,-220.00,220.00,220.00" projParameter="!"/>

    <edge id=":E_0" function="internal">
        <lane id=":E_0_0" index="0" speed="3.65" length="4.67" shape="440.00,218.40 441.20,219.20 441.60,220.00 441.20,220.80 440.00,221.60"/>
    </edge>
    <edge id=":J0_0" function="internal">
        <lane id=":J0_0_0" index="0" speed="6.51" length="9.03" shape="215.20,230.40 214.85,227.95 213.80,226.20 212.05,225.15 209.60,224.80"/>
    </edge>
    <edge id=":J0_1" function="internal">
        <lane id=":J0_1_0" index="0" speed="13.90" length="20.80" shape="215.20,230.40 215.20,209.60"/>
        <lane id=":J0_1_1" index="1" speed="13.90" length="20.80" shape="218.40,230.40 218.40,209.60"/>
    </edge>
    <edge id=":J0_3" function="internal">
        <lane id=":J0_3_0" index="0" speed="9.26" length="5.01" shape="218.40,230.40 219.11,225.44"/>
    </edge>
    <edge id=":J0_4" function="internal">
        <lane id=":J0_4_0" index="0" speed="3.65" length="1.44" shape="218.40,230.40 219.20,229.20"/>
    </edge>
    <edge id=":J0_20" function="internal">
        <lane id=":J0_20_0" index="0" speed="9.26" length="14.34" shape="219.11,225.44 219.15,225.15 221.40,221.40 225.15,219.15 230.40,218.40"/>
    </edge>
    <edge id=":J0_21" function="internal">
        <lane id=":J0_21_0" index="0" speed="3.65" length="3.23" shape="219.20,229.20 220.00,228.80 220.80,229.20 221.60,230.40"/>
    </edge>
    <edge id=":J0_5" function="internal">
        <lane id=":J0_5_0" index="0" speed="6.51" length="9.03" shape="230.40,224.80 227.95,225.15 226.20,226.20 225.15,227.95 224.80,230.40"/>
    </edge>
    <edge id=":J0_6" function="internal">
        <lane id=":J0_6_0" index="0" speed="13.90" length="20.80" shape="230.40,224.80 209.60,224.80"/>
        <lane id=":J0_6_1" index="1" speed="13.90" length="20.80" shape="230.40,221.60 209.60,221.60"/>
    </edge>
    <edge id=":J0_8" function="internal">
        <lane id=":J0_8_0" index="0" speed="9.26" length="5.01" shape="230.40,221.60 225.44,220.89"/>
    </edge>
    <edge id=":J0_9" function="internal">
        <lane id=":J0_9_0" index="0" speed="3.65" length="1.44" shape="230.40,221.60 229.20,220.80"/>
    </edge>
    <edge id=":J0_22" function="internal">
        <lane id=":J0_22_0" index="0" speed="9.26" length="14.34" shape="225.44,220.89 225.15,220.85 221.40,218.60 219.15,214.85 218.40,209.60"/>
    </edge>
    <edge id=":J0_23" function="internal">
        <lane id=":J0_23_0" index="0" speed="3.65" length="3.23" shape="229.20,220.80 228.80,220.00 229.20,219.20 230.40,218.40"/>
    </edge>
    <edge id=":J0_10" function="internal">
        <lane id=":J0_10_0" index="0" speed="6.51" length="9.03" shape="224.80,209.60 225.15,212.05 226.20,213.80 227.95,214.85 230.40,215.20"/>
    </edge>
    <edge id=":J0_11" function="internal">
        <lane id=":J0_11_0" index="0" speed="13.90" length="20.80" shape="224.80,209.60 224.80,230.40"/>
        <lane id=":J0_11_1" index="1" speed="13.90" length="20.80" shape="221.60,209.60 221.60,230.40"/>
    </edge>
    <edge id=":J0_13" function="internal">
        <lane id=":J0_13_0" index="0" speed="9.26" length="5.01" shape="221.60,209.60 220.89,214.56"/>
    </edge>
    <edge id=":J0_14" function="internal">
        <lane id=":J0_14_0" index="0" speed="3.65" length="1.44" shape="221.60,209.60 220.80,210.80"/>
    </edge>
    <edge id=":J0_24" function="internal">
        <lane id=":J0_24_0" index="0" speed="9.26" length="14.34" shape="220.89,214.56 220.85,214.85 218.60,218.60 214.85,220.85 209.60,221.60"/>
    </edge>
    <edge id=":J0_25" function="internal">
        <lane id=":J0_25_0" index="0" speed="3.65" length="3.23" shape="220.80,210.80 220.00,211.20 219.20,210.80 218.40,209.60"/>
    </edge>
    <edge id=":J0_15" function="internal">
        <lane id=":J0_15_0" index="0" speed="6.51" length="9.03" shape="209.60,215.20 212.05,214.85 213.80,213.80 214.85,212.05 215.20,209.60"/>
    </edge>
    <edge id=":J0_16" function="internal">
        <lane id=":J0_16_0" index="0" speed="13.90" length="20.80" shape="209.60,215.20 230.40,215.20"/>
        <lane id=":J0_16_1" index="1" speed="13.90" length="20.80" shape="209.60,218.40 230.40,218.40"/>
    </edge>
    <edge id=":J0_18" function="internal">
        <lane id=":J0_18_0" index="0" speed="9.26" length="5.01" shape="209.60,218.40 214.56,219.11"/>
    </edge>
    <edge id=":J0_19" function="internal">
        <lane id=":J0_19_0" index="0" speed="3.65" length="1.44" shape="209.60,218.40 210.80,219.20"/>
    </edge>
    <edge id=":J0_26" function="internal">
        <lane id=":J0_26_0" index="0" speed="9.26" length="14.34" shape="214.56,219.11 214.85,219.15 218.60,221.40 220.85,225.15 221.60,230.40"/>
    </edge>
    <edge id=":J0_27" function="internal">
        <lane id=":J0_27_0" index="0" speed="3.65" length="3.23" shape="210.80,219.20 211.20,220.00 210.80,220.80 209.60,221.60"/>
    </edge>
    <edge id=":N_0" function="internal">
        <lane id=":N_0_0" index="0" speed="3.65" length="4.67" shape="221.60,440.00 220.80,441.20 220.00,441.60 219.20,441.20 218.40,440.00"/>
    </edge>
    <edge id=":S_0" function="internal">
        <lane id=":S_0_0" index="0" speed="3.65" length="4.67" shape="218.40,0.00 219.20,-1.20 220.00,-1.60 220.80,-1.20 221.60,0.00"/>
    </edge>
    <edge id=":W_0" function="internal">
        <lane id=":W_0_0" index="0" speed="3.65" length="4.67" shape="0.00,221.60 -1.20,220.80 -1.60,220.00 -1.20,219.20 0.00,218.40"/>
    </edge>

    <edge id="E_to_J0" from="E" to="J0" priority="-1">
        <lane id="E_to_J0_0" index="0" speed="13.90" length="209.60" shape="440.00,224.80 230.40,224.80"/>
        <lane id="E_to_J0_1" index="1" speed="13.90" length="209.60" shape="440.00,221.60 230.40,221.60"/>
    </edge>
    <edge id="J0_to_E" from="J0" to="E" priority="-1">
        <lane id="J0_to_E_0" index="0" speed="13.90" length="209.60" shape="230.40,215.20 440.00,215.20"/>
        <lane id="J0_to_E_1" index="1" speed="13.90" length="209.60" shape="230.40,218.40 440.00,218.40"/>
    </edge>
    <edge id="J0_to_N" from="J0" to="N" priority="-1">
        <lane id="J0_to_N_0" index="0" speed="13.90" length="209.60" shape="224.80,230.40 224.80,440.00"/>
        <lane id="J0_to_N_1" index="1" speed="13.90" length="209.60" shape="221.60,230.40 221.60,440.00"/>
    </edge>
    <edge id="J0_to_S" from="J0" to="S" priority="-1">
        <lane id="J0_to_S_0" index="0" speed="13.90" length="209.60" shape="215.20,209.60 215.20,0.00"/>
        <lane id="J0_to_S_1" index="1" speed="13.90" length="209.60" shape="218.40,209.60 218.40,0.00"/>
    </edge>
    <edge id="J0_to_W" from="J0" to="W" priority="-1">
        <lane id="J0_to_W_0" index="0" speed="13.90" length="209.60" shape="209.60,224.80 0.00,224.80"/>
        <lane id="J0_to_W_1" index="1" speed="13.90" length="209.60" shape="209.60,221.60 0.00,221.60"/>
    </edge>
    <edge id="N_to_J0" from="N" to="J0" priority="-1">
        <lane id="N_to_J0_0" index="0" speed="13.90" length="209.60" shape="215.20,440.00 215.20,230.40"/>
        <lane id="N_to_J0_1" index="1" speed="13.90" length="209.60" shape="218.40,440.00 218.40,230.40"/>
    </edge>
    <edge id="S_to_J0" from="S" to="J0" priority="-1">
        <lane id="S_to_J0_0" index="0" speed="13.90" length="209.60" shape="224.80,0.00 224.80,209.60"/>
        <lane id="S_to_J0_1" index="1" speed="13.90" length="209.60" shape="221.60,0.00 221.60,209.60"/>
    </edge>
    <edge id="W_to_J0" from="W" to="J0" priority="-1">
        <lane id="W_to_J0_0" index="0" speed="13.90" length="209.60" shape="0.00,215.20 209.60,215.20"/>
        <lane id="W_to_J0_1" index="1" speed="13.90" length="209.60" shape="0.00,218.40 209.60,218.40"/>
    </edge>

    <tlLogic id="J0" type="static" programID="0" offset="0">
        <phase duration="42" state="GGGggrrrrrGGGggrrrrr"/>
        <phase duration="3"  state="yyyyyrrrrryyyyyrrrrr"/>
        <phase duration="42" state="rrrrrGGGggrrrrrGGGgg"/>
        <phase duration="3"  state="rrrrryyyyyrrrrryyyyy"/>
    </tlLogic>

    <junction id="E" type="priority" x="440.00" y="220.00" incLanes="J0_to_E_0 J0_to_E_1" intLanes=":E_0_0" shape="440.00,220.00 440.00,213.60 440.00,220.00">
        <request index="0" response="0" foes="0" cont="0"/>
    </junction>
    <junction id="J0" type="traffic_light" x="220.00" y="220.00" incLanes="N_to_J0_0 N_to_J0_1 E_to_J0_0 E_to_J0_1 S_to_J0_0 S_to_J0_1 W_to_J0_0 W_to_J0_1" intLanes=":J0_0_0 :J0_1_0 :J0_1_1 :J0_20_0 :J0_21_0 :J0_5_0 :J0_6_0 :J0_6_1 :J0_22_0 :J0_23_0 :J0_10_0 :J0_11_0 :J0_11_1 :J0_24_0 :J0_25_0 :J0_15_0 :J0_16_0 :J0_16_1 :J0_26_0 :J0_27_0" shape="213.60,230.40 226.40,230.40 226.84,228.18 227.40,227.40 228.18,226.84 229.18,226.51 230.40,226.40 230.40,213.60 228.18,213.16 227.40,212.60 226.84,211.82 226.51,210.82 226.40,209.60 213.60,209.60 213.16,211.82 212.60,212.60 211.82,213.16 210.82,213.49 209.60,213.60 209.60,226.40 211.82,226.84 212.60,227.40 213.16,228.18 213.49,229.18">
        <request index="0"  response="00000000000000000000" foes="00000000000011000000" cont="0"/>
        <request index="1"  response="01000000000000000000" foes="01111110000111000000" cont="0"/>
        <request index="2"  response="01000000000100000000" foes="01111110000111000000" cont="0"/>
        <request index="3"  response="01000001100100000000" foes="01110001101111000000" cont="1"/>
        <request index="4"  response="01000001100000000000" foes="01000001100000000000" cont="1"/>
        <request index="5"  response="00000001100000000000" foes="00000001100000000000" cont="0"/>
        <request index="6"  response="00000011100000001111" foes="11000011100000001111" cont="0"/>
        <request index="7"  response="00000011100000001111" foes="11000011100000001111" cont="0"/>
        <request index="8"  response="00110011100000001110" foes="00110111100000001110" cont="1"/>
        <request index="9"  response="00110000000000001000" foes="00110000000000001000" cont="1"/>
        <request index="10" response="00000000000000000000" foes="00110000000000000000" cont="0"/>
        <request index="11" response="00000000000100000000" foes="01110000000111111000" cont="0"/>
        <request index="12" response="01000000000100000000" foes="01110000000111111000" cont="0"/>
        <request index="13" response="01000000000100000110" foes="11110000000111000110" cont="1"/>
        <request index="14" response="00000000000100000110" foes="00000000000100000110" cont="1"/>
        <request index="15" response="00000000000000000110" foes="00000000000000000110" cont="0"/>
        <request index="16" response="00000011110000001110" foes="00000011111100001110" cont="0"/>
        <request index="17" response="00000011110000001110" foes="00000011111100001110" cont="0"/>
        <request index="18" response="00000011100011001110" foes="00000011100011011110" cont="1"/>
        <request index="19" response="00000010000011000000" foes="00000010000011000000" cont="1"/>
    </junction>
    <junction id="N" type="priority" x="220.00" y="440.00" incLanes="J0_to_N_0 J0_to_N_1" intLanes=":N_0_0" shape="220.00,440.00 226.40,440.00 220.00,440.00">
        <request index="0" response="0" foes="0" cont="0"/>
    </junction>
    <junction id="S" type="priority" x="220.00" y="0.00" incLanes="J0_to_S_0 J0_to_S_1" intLanes=":S_0_0" shape="220.00,0.00 213.60,0.00 220.00,0.00">
        <request index="0" response="0" foes="0" cont="0"/>
    </junction>
    <junction id="W" type="priority" x="0.00" y="220.00" incLanes="J0_to_W_0 J0_to_W_1" intLanes=":W_0_0" shape="0.00,220.00 0.00,226.40 0.00,220.00">
        <request index="0" response="0" foes="0" cont="0"/>
    </junction>

    <junction id=":J0_20_0" type="internal" x="219.11" y="225.44" incLanes=":J0_3_0 S_to_J0_0 S_to_J0_1" intLanes=":J0_6_0 :J0_6_1 :J0_8_0 :J0_9_0 :J0_10_0 :J0_11_0 :J0_11_1 :J0_16_0 :J0_16_1 :J0_18_0"/>
    <junction id=":J0_21_0" type="internal" x="219.20" y="229.20" incLanes=":J0_4_0 E_to_J0_0 S_to_J0_0 S_to_J0_1 W_to_J0_1" intLanes=":J0_5_0 :J0_11_0 :J0_11_1 :J0_18_0"/>
    <junction id=":J0_22_0" type="internal" x="225.44" y="220.89" incLanes=":J0_8_0 W_to_J0_0 W_to_J0_1" intLanes=":J0_1_0 :J0_1_1 :J0_3_0 :J0_11_0 :J0_11_1 :J0_13_0 :J0_14_0 :J0_15_0 :J0_16_0 :J0_16_1"/>
    <junction id=":J0_23_0" type="internal" x="229.20" y="220.80" incLanes=":J0_9_0 N_to_J0_1 S_to_J0_0 W_to_J0_0 W_to_J0_1" intLanes=":J0_3_0 :J0_10_0 :J0_16_0 :J0_16_1"/>
    <junction id=":J0_24_0" type="internal" x="220.89" y="214.56" incLanes=":J0_13_0 N_to_J0_0 N_to_J0_1" intLanes=":J0_0_0 :J0_1_0 :J0_1_1 :J0_6_0 :J0_6_1 :J0_8_0 :J0_16_0 :J0_16_1 :J0_18_0 :J0_19_0"/>
    <junction id=":J0_25_0" type="internal" x="220.80" y="210.80" incLanes=":J0_14_0 E_to_J0_1 N_to_J0_0 N_to_J0_1 W_to_J0_0" intLanes=":J0_1_0 :J0_1_1 :J0_8_0 :J0_15_0"/>
    <junction id=":J0_26_0" type="internal" x="214.56" y="219.11" incLanes=":J0_18_0 E_to_J0_0 E_to_J0_1" intLanes=":J0_1_0 :J0_1_1 :J0_3_0 :J0_4_0 :J0_5_0 :J0_6_0 :J0_6_1 :J0_11_0 :J0_11_1 :J0_13_0"/>
    <junction id=":J0_27_0" type="internal" x="210.80" y="219.20" incLanes=":J0_19_0 E_to_J0_0 E_to_J0_1 N_to_J0_0 S_to_J0_1" intLanes=":J0_0_0 :J0_6_0 :J0_6_1 :J0_13_0"/>

    <connection from="E_to_J0" to="J0_to_N" fromLane="0" toLane="0" via=":J0_5_0" tl="J0" linkIndex="5" dir="r" state="o"/>
    <connection from="E_to_J0" to="J0_to_W" fromLane="0" toLane="0" via=":J0_6_0" tl="J0" linkIndex="6" dir="s" state="o"/>
    <connection from="E_to_J0" to="J0_to_W" fromLane="1" toLane="1" via=":J0_6_1" tl="J0" linkIndex="7" dir="s" state="o"/>
    <connection from="E_to_J0" to="J0_to_S" fromLane="1" toLane="1" via=":J0_8_0" tl="J0" linkIndex="8" dir="l" state="o"/>
    <connection from="E_to_J0" to="J0_to_E" fromLane="1" toLane="1" via=":J0_9_0" tl="J0" linkIndex="9" dir="t" state="o"/>
    <connection from="J0_to_E" to="E_to_J0" fromLane="1" toLane="1" via=":E_0_0" dir="t" state="M"/>
    <connection from="J0_to_N" to="N_to_J0" fromLane="1" toLane="1" via=":N_0_0" dir="t" state="M"/>
    <connection from="J0_to_S" to="S_to_J0" fromLane="1" toLane="1" via=":S_0_0" dir="t" state="M"/>
    <connection from="J0_to_W" to="W_to_J0" fromLane="1" toLane="1" via=":W_0_0" dir="t" state="M"/>
    <connection from="N_to_J0" to="J0_to_W" fromLane="0" toLane="0" via=":J0_0_0" tl="J0" linkIndex="0" dir="r" state="O"/>
    <connection from="N_to_J0" to="J0_to_S" fromLane="0" toLane="0" via=":J0_1_0" tl="J0" linkIndex="1" dir="s" state="O"/>
    <connection from="N_to_J0" to="J0_to_S" fromLane="1" toLane="1" via=":J0_1_1" tl="J0" linkIndex="2" dir="s" state="O"/>
    <connection from="N_to_J0" to="J0_to_E" fromLane="1" toLane="1" via=":J0_3_0" tl="J0" linkIndex="3" dir="l" state="o"/>
    <connection from="N_to_J0" to="J0_to_N" fromLane="1" toLane="1" via=":J0_4_0" tl="J0" linkIndex="4" dir="t" state="o"/>
    <connection from="S_to_J0" to="J0_to_E" fromLane="0" toLane="0" via=":J0_10_0" tl="J0" linkIndex="10" dir="r" state="O"/>
    <connection from="S_to_J0" to="J0_to_N" fromLane="0" toLane="0" via=":J0_11_0" tl="J0" linkIndex="11" dir="s" state="O"/>
    <connection from="S_to_J0" to="J0_to_N" fromLane="1" toLane="1" via=":J0_11_1" tl="J0" linkIndex="12" dir="s" state="O"/>
    <connection from="S_to_J0" to="J0_to_W" fromLane="1" toLane="1" via=":J0_13_0" tl="J0" linkIndex="13" dir="l" state="o"/>
    <connection from="S_to_J0" to="J0_to_S" fromLane="1" toLane="1" via=":J0_14_0" tl="J0" linkIndex="14" dir="t" state="o"/>
    <connection from="W_to_J0" to="J0_to_S" fromLane="0" toLane="0" via=":J0_15_0" tl="J0" linkIndex="15" dir="r" state="o"/>
    <connection from="W_to_J0" to="J0_to_E" fromLane="0" toLane="0" via=":J0_16_0" tl="J0" linkIndex="16" dir="s" state="o"/>
    <connection from="W_to_J0" to="J0_to_E" fromLane="1" toLane="1" via=":J0_16_1" tl="J0" linkIndex="17" dir="s" state="o"/>
    <connection from="W_to_J0" to="J0_to_N" fromLane="1" toLane="1" via=":J0_18_0" tl="J0" linkIndex="18" dir="l" state="o"/>
    <connection from="W_to_J0" to="J0_to_W" fromLane="1" toLane="1" via=":J0_19_0" tl="J0" linkIndex="19" dir="t" state="o"/>

    <connection from=":E_0" to="E_to_J0" fromLane="0" toLane="1" dir="t" state="M"/>
    <connection from=":J0_0" to="J0_to_W" fromLane="0" toLane="0" dir="r" state="M"/>
    <connection from=":J0_1" to="J0_to_S" fromLane="0" toLane="0" dir="s" state="M"/>
    <connection from=":J0_1" to="J0_to_S" fromLane="1" toLane="1" dir="s" state="M"/>
    <connection from=":J0_3" to="J0_to_E" fromLane="0" toLane="1" via=":J0_20_0" dir="l" state="m"/>
    <connection from=":J0_20" to="J0_to_E" fromLane="0" toLane="1" dir="l" state="M"/>
    <connection from=":J0_4" to="J0_to_N" fromLane="0" toLane="1" via=":J0_21_0" dir="t" state="m"/>
    <connection from=":J0_21" to="J0_to_N" fromLane="0" toLane="1" dir="t" state="M"/>
    <connection from=":J0_5" to="J0_to_N" fromLane="0" toLane="0" dir="r" state="M"/>
    <connection from=":J0_6" to="J0_to_W" fromLane="0" toLane="0" dir="s" state="M"/>
    <connection from=":J0_6" to="J0_to_W" fromLane="1" toLane="1" dir="s" state="M"/>
    <connection from=":J0_8" to="J0_to_S" fromLane="0" toLane="1" via=":J0_22_0" dir="l" state="m"/>
    <connection from=":J0_22" to="J0_to_S" fromLane="0" toLane="1" dir="l" state="M"/>
    <connection from=":J0_9" to="J0_to_E" fromLane="0" toLane="1" via=":J0_23_0" dir="t" state="m"/>
    <connection from=":J0_23" to="J0_to_E" fromLane="0" toLane="1" dir="t" state="M"/>
    <connection from=":J0_10" to="J0_to_E" fromLane="0" toLane="0" dir="r" state="M"/>
    <connection from=":J0_11" to="J0_to_N" fromLane="0" toLane="0" dir="s" state="M"/>
    <connection from=":J0_11" to="J0_to_N" fromLane="1" toLane="1" dir="s" state="M"/>
    <connection from=":J0_13" to="J0_to_W" fromLane="0" toLane="1" via=":J0_24_0" dir="l" state="m"/>
    <connection from=":J0_24" to="J0_to_W" fromLane="0" toLane="1" dir="l" state="M"/>
    <connection from=":J0_14" to="J0_to_S" fromLane="0" toLane="1" via=":J0_25_0" dir="t" state="m"/>
    <connection from=":J0_25" to="J0_to_S" fromLane="0" toLane="1" dir="t" state="M"/>
    <connection from=":J0_15" to="J0_to_S" fromLane="0" toLane="0" dir="r" state="M"/>
    <connection from=":J0_16" to="J0_to_E" fromLane="0" toLane="0" dir="s" state="M"/>
    <connection from=":J0_16" to="J0_to_E" fromLane="1" toLane="1" dir="s" state="M"/>
    <connection from=":J0_18" to="J0_to_N" fromLane="0" toLane="1" via=":J0_26_0" dir="l" state="m"/>
    <connection from=":J0_26" to="J0_to_N" fromLane="0" toLane="1" dir="l" state="M"/>
    <connection from=":J0_19" to="J0_to_W" fromLane="0" toLane="1" via=":J0_27_0" dir="t" state="m"/>
    <connection from=":J0_27" to="J0_to_W" fromLane="0" toLane="1" dir="t" state="M"/>
    <connection from=":N_0" to="N_to_J0" fromLane="0" toLane="1" dir="t" state="M"/>
    <connection from=":S_0" to="S_to_J0" fromLane="0" toLane="1" dir="t" state="M"/>
    <connection from=":W_0" to="W_to_J0" fromLane="0" toLane="1" dir="t" state="M"/>

</net>
