<?xml version="1.0" encoding="UTF-8"?>

<!-- generated on 2026-04-11T21:46:39.243140+05:30 by Eclipse SUMO netconvert 1.26.0
<netconvertConfiguration xmlns:xsi="http://www.w3.org/2001/XMLSchema-instance" xsi:noNamespaceSchemaLocation="http://sumo.dlr.de/xsd/netconvertConfiguration.xsd">

    <input>
        <node-files value="C:\Users\santhosh\OneDrive\Desktop\trafiic pro\web_runs\20260411_214638_798436\area.nod.xml"/>
        <edge-files value="C:\Users\santhosh\OneDrive\Desktop\trafiic pro\web_runs\20260411_214638_798436\area.edg.xml"/>
    </input>

    <output>
        <output-file value="C:\Users\santhosh\OneDrive\Desktop\trafiic pro\web_runs\20260411_214638_798436\area.net.xml"/>
    </output>

</netconvertConfiguration>
-->

<net version="1.20" junctionCornerDetail="5" limitTurnSpeed="5.50" xmlns:xsi="http://www.w3.org/2001/XMLSchema-instance" xsi:noNamespaceSchemaLocation="http://sumo.dlr.de/xsd/net_file.xsd">

    <location netOffset="0.00,0.00" convBoundary="0.00,0.00,900.00,589.00" origBoundary="0.00,0.00,900.00,589.00" projParameter="!"/>

    <edge id=":E0_0" function="internal">
        <lane id=":E0_0_0" index="0" speed="3.65" length="4.67" shape="900.00,135.98 901.20,136.78 901.60,137.58 901.20,138.38 900.00,139.18"/>
    </edge>
    <edge id=":E1_0" function="internal">
        <lane id=":E1_0_0" index="0" speed="3.65" length="4.67" shape="900.00,251.07 901.20,251.87 901.60,252.67 901.20,253.47 900.00,254.27"/>
    </edge>
    <edge id=":E2_0" function="internal">
        <lane id=":E2_0_0" index="0" speed="3.65" length="4.67" shape="900.00,365.39 901.20,366.19 901.60,366.99 901.20,367.79 900.00,368.59"/>
    </edge>
    <edge id=":E3_0" function="internal">
        <lane id=":E3_0_0" index="0" speed="3.65" length="4.67" shape="900.00,479.04 901.20,479.84 901.60,480.64 901.20,481.44 900.00,482.24"/>
    </edge>
    <edge id=":J0_0_0" function="internal">
        <lane id=":J0_0_0_0" index="0" speed="8.27" length="19.22" shape="158.01,122.73 151.31,118.59 146.29,116.50 142.97,116.46 141.33,118.47"/>
    </edge>
    <edge id=":J0_0_1" function="internal">
        <lane id=":J0_0_1_0" index="0" speed="12.95" length="34.44" shape="158.01,122.73 151.20,118.26 143.51,113.93 135.50,110.67 127.71,109.38"/>
        <lane id=":J0_0_1_1" index="1" speed="12.95" length="34.44" shape="159.81,120.08 152.72,115.53 144.42,111.01 135.79,107.56 127.71,106.18"/>
    </edge>
    <edge id=":J0_0_3" function="internal">
        <lane id=":J0_0_3_0" index="0" speed="12.95" length="34.65" shape="159.81,120.08 150.45,112.97 143.75,106.28 139.74,100.02 138.40,94.18"/>
    </edge>
    <edge id=":J0_0_4" function="internal">
        <lane id=":J0_0_4_0" index="0" speed="7.85" length="23.81" shape="159.81,120.08 155.86,115.11 155.76,109.56 159.03,105.07 165.12,103.27"/>
    </edge>
    <edge id=":J0_0_5" function="internal">
        <lane id=":J0_0_5_0" index="0" speed="3.65" length="2.34" shape="159.81,120.08 159.28,118.75 159.40,117.86"/>
    </edge>
    <edge id=":J0_0_30" function="internal">
        <lane id=":J0_0_30_0" index="0" speed="3.65" length="2.34" shape="159.40,117.86 160.18,117.43 161.62,117.44"/>
    </edge>
    <edge id=":J0_0_6" function="internal">
        <lane id=":J0_0_6_0" index="0" speed="5.48" length="10.67" shape="165.05,109.67 161.47,109.95 160.01,110.90 160.66,112.52 163.43,114.80"/>
    </edge>
    <edge id=":J0_0_7" function="internal">
        <lane id=":J0_0_7_0" index="0" speed="11.97" length="26.90" shape="165.05,109.67 155.56,110.13 148.44,111.75 143.70,114.52 141.33,118.47"/>
    </edge>
    <edge id=":J0_0_8" function="internal">
        <lane id=":J0_0_8_0" index="0" speed="13.90" length="37.36" shape="165.05,109.67 127.71,109.38"/>
        <lane id=":J0_0_8_1" index="1" speed="13.90" length="37.36" shape="165.09,106.47 127.71,106.18"/>
    </edge>
    <edge id=":J0_0_10" function="internal">
        <lane id=":J0_0_10_0" index="0" speed="11.87" length="10.36" shape="165.09,106.47 154.75,105.69"/>
    </edge>
    <edge id=":J0_0_11" function="internal">
        <lane id=":J0_0_11_0" index="0" speed="3.65" length="1.44" shape="165.09,106.47 163.90,105.66"/>
    </edge>
    <edge id=":J0_0_31" function="internal">
        <lane id=":J0_0_31_0" index="0" speed="11.87" length="21.81" shape="154.75,105.69 153.41,105.59 145.07,103.24 140.07,99.44 138.40,94.18"/>
    </edge>
    <edge id=":J0_0_32" function="internal">
        <lane id=":J0_0_32_0" index="0" speed="3.65" length="3.23" shape="163.90,105.66 163.51,104.85 163.92,104.06 165.12,103.27"/>
    </edge>
    <edge id=":J0_0_12" function="internal">
        <lane id=":J0_0_12_0" index="0" speed="9.97" length="22.40" shape="144.80,94.18 146.07,96.67 149.89,98.48 156.25,99.61 165.16,100.07"/>
    </edge>
    <edge id=":J0_0_13" function="internal">
        <lane id=":J0_0_13_0" index="0" speed="12.95" length="28.52" shape="144.80,94.18 145.96,98.42 149.46,103.27 155.28,108.73 163.43,114.80"/>
    </edge>
    <edge id=":J0_0_14" function="internal">
        <lane id=":J0_0_14_0" index="0" speed="13.90" length="24.21" shape="144.80,94.18 144.61,100.83 144.01,106.44 142.94,112.00 141.33,118.47"/>
        <lane id=":J0_0_14_1" index="1" speed="13.90" length="24.21" shape="141.60,94.18 141.43,100.71 140.87,106.04 139.83,111.31 138.24,117.66"/>
    </edge>
    <edge id=":J0_0_16" function="internal">
        <lane id=":J0_0_16_0" index="0" speed="9.60" length="5.08" shape="141.60,94.18 140.77,99.19"/>
    </edge>
    <edge id=":J0_0_17" function="internal">
        <lane id=":J0_0_17_0" index="0" speed="3.65" length="1.44" shape="141.60,94.18 140.80,95.38"/>
    </edge>
    <edge id=":J0_0_33" function="internal">
        <lane id=":J0_0_33_0" index="0" speed="9.60" length="15.82" shape="140.77,99.19 140.73,99.43 138.13,103.18 133.79,105.43 127.71,106.18"/>
    </edge>
    <edge id=":J0_0_34" function="internal">
        <lane id=":J0_0_34_0" index="0" speed="3.65" length="3.23" shape="140.80,95.38 140.00,95.78 139.20,95.38 138.40,94.18"/>
    </edge>
    <edge id=":J0_0_18" function="internal">
        <lane id=":J0_0_18_0" index="0" speed="6.99" length="10.60" shape="127.71,99.78 130.99,99.43 133.33,98.38 134.73,96.63 135.20,94.18"/>
    </edge>
    <edge id=":J0_0_19" function="internal">
        <lane id=":J0_0_19_0" index="0" speed="13.90" length="37.43" shape="127.71,99.78 165.16,100.07"/>
        <lane id=":J0_0_19_1" index="1" speed="13.90" length="37.43" shape="127.71,102.98 165.12,103.27"/>
    </edge>
    <edge id=":J0_0_21" function="internal">
        <lane id=":J0_0_21_0" index="0" speed="12.95" length="4.31" shape="127.71,102.98 131.96,103.73"/>
    </edge>
    <edge id=":J0_0_22" function="internal">
        <lane id=":J0_0_22_0" index="0" speed="9.05" length="4.98" shape="127.71,102.98 132.64,103.73"/>
    </edge>
    <edge id=":J0_0_23" function="internal">
        <lane id=":J0_0_23_0" index="0" speed="3.65" length="1.44" shape="127.71,102.98 128.91,103.78"/>
    </edge>
    <edge id=":J0_0_35" function="internal">
        <lane id=":J0_0_35_0" index="0" speed="12.95" length="32.92" shape="131.96,103.73 136.07,104.45 145.32,108.09 154.25,112.80 161.62,117.44"/>
    </edge>
    <edge id=":J0_0_36" function="internal">
        <lane id=":J0_0_36_0" index="0" speed="9.05" length="17.09" shape="132.64,103.73 133.75,103.90 137.52,106.65 139.02,111.24 138.24,117.66"/>
    </edge>
    <edge id=":J0_0_37" function="internal">
        <lane id=":J0_0_37_0" index="0" speed="3.65" length="3.23" shape="128.91,103.78 129.31,104.58 128.91,105.38 127.71,106.18"/>
    </edge>
    <edge id=":J0_0_24" function="internal">
        <lane id=":J0_0_24_0" index="0" speed="6.20" length="9.69" shape="132.04,116.04 132.43,113.12 131.83,111.04 130.26,109.80 127.71,109.38"/>
    </edge>
    <edge id=":J0_0_25" function="internal">
        <lane id=":J0_0_25_0" index="0" speed="13.90" length="22.59" shape="132.04,116.04 133.60,109.95 134.57,105.23 135.06,100.45 135.20,94.18"/>
        <lane id=":J0_0_25_1" index="1" speed="13.90" length="22.59" shape="135.14,116.85 136.72,110.63 137.72,105.64 138.25,100.58 138.40,94.18"/>
    </edge>
    <edge id=":J0_0_27" function="internal">
        <lane id=":J0_0_27_0" index="0" speed="13.67" length="3.00" shape="135.14,116.85 136.55,114.20"/>
    </edge>
    <edge id=":J0_0_28" function="internal">
        <lane id=":J0_0_28_0" index="0" speed="10.55" length="2.53" shape="135.14,116.85 136.45,114.68"/>
    </edge>
    <edge id=":J0_0_29" function="internal">
        <lane id=":J0_0_29_0" index="0" speed="3.65" length="1.44" shape="135.14,116.85 136.22,115.89"/>
    </edge>
    <edge id=":J0_0_38" function="internal">
        <lane id=":J0_0_38_0" index="0" speed="13.67" length="32.34" shape="136.55,114.20 138.37,110.79 144.45,106.51 153.37,104.00 165.12,103.27"/>
    </edge>
    <edge id=":J0_0_39" function="internal">
        <lane id=":J0_0_39_0" index="0" speed="10.55" length="29.58" shape="136.45,114.68 138.94,110.54 145.04,109.38 152.82,112.10 161.62,117.44"/>
    </edge>
    <edge id=":J0_0_40" function="internal">
        <lane id=":J0_0_40_0" index="0" speed="3.65" length="3.23" shape="136.22,115.89 137.09,115.70 137.76,116.29 138.24,117.66"/>
    </edge>
    <edge id=":J0_1_0" function="internal">
        <lane id=":J0_1_0_0" index="0" speed="6.47" length="9.16" shape="353.16,112.84 350.67,112.94 348.84,113.83 347.66,115.53 347.12,118.03"/>
    </edge>
    <edge id=":J0_1_1" function="internal">
        <lane id=":J0_1_1_0" index="0" speed="13.90" length="21.11" shape="353.16,112.84 347.11,112.21 342.73,111.86 338.34,111.70 332.25,111.60"/>
        <lane id=":J0_1_1_1" index="1" speed="13.90" length="21.11" shape="353.50,109.66 347.40,109.03 342.92,108.67 338.43,108.50 332.29,108.41"/>
    </edge>
    <edge id=":J0_1_3" function="internal">
        <lane id=":J0_1_3_0" index="0" speed="9.77" length="5.02" shape="353.50,109.66 348.63,108.44"/>
    </edge>
    <edge id=":J0_1_4" function="internal">
        <lane id=":J0_1_4_0" index="0" speed="3.65" length="1.44" shape="353.50,109.66 352.40,108.73"/>
    </edge>
    <edge id=":J0_1_20" function="internal">
        <lane id=":J0_1_20_0" index="0" speed="9.77" length="14.88" shape="348.63,108.44 348.25,108.35 344.50,105.71 342.25,101.75 341.50,96.46"/>
    </edge>
    <edge id=":J0_1_21" function="internal">
        <lane id=":J0_1_21_0" index="0" speed="3.65" length="3.23" shape="352.40,108.73 352.08,107.89 352.57,107.14 353.85,106.47"/>
    </edge>
    <edge id=":J0_1_5" function="internal">
        <lane id=":J0_1_5_0" index="0" speed="7.20" length="10.36" shape="347.90,96.46 348.29,99.19 349.47,101.25 351.44,102.61 354.19,103.29"/>
    </edge>
    <edge id=":J0_1_6" function="internal">
        <lane id=":J0_1_6_0" index="0" speed="13.90" length="21.48" shape="347.90,96.46 347.12,118.03"/>
        <lane id=":J0_1_6_1" index="1" speed="13.90" length="21.48" shape="344.70,96.46 343.93,117.81"/>
    </edge>
    <edge id=":J0_1_8" function="internal">
        <lane id=":J0_1_8_0" index="0" speed="9.30" length="5.34" shape="344.70,96.46 343.92,101.74"/>
    </edge>
    <edge id=":J0_1_9" function="internal">
        <lane id=":J0_1_9_0" index="0" speed="3.65" length="1.44" shape="344.70,96.46 343.90,97.66"/>
    </edge>
    <edge id=":J0_1_22" function="internal">
        <lane id=":J0_1_22_0" index="0" speed="9.30" length="14.36" shape="343.92,101.74 341.60,105.49 337.72,107.71 332.29,108.41"/>
    </edge>
    <edge id=":J0_1_23" function="internal">
        <lane id=":J0_1_23_0" index="0" speed="3.65" length="3.23" shape="343.90,97.66 343.10,98.06 342.30,97.66 341.50,96.46"/>
    </edge>
    <edge id=":J0_1_10" function="internal">
        <lane id=":J0_1_10_0" index="0" speed="6.56" length="9.29" shape="332.37,102.01 334.96,101.68 336.82,100.65 337.93,98.91 338.30,96.46"/>
    </edge>
    <edge id=":J0_1_11" function="internal">
        <lane id=":J0_1_11_0" index="0" speed="13.90" length="21.72" shape="332.37,102.01 338.60,102.11 343.30,102.29 347.99,102.66 354.19,103.29"/>
        <lane id=":J0_1_11_1" index="1" speed="13.90" length="21.72" shape="332.33,105.21 338.51,105.30 343.11,105.48 347.69,105.84 353.85,106.47"/>
    </edge>
    <edge id=":J0_1_13" function="internal">
        <lane id=":J0_1_13_0" index="0" speed="9.17" length="5.11" shape="332.33,105.21 337.38,105.99"/>
    </edge>
    <edge id=":J0_1_14" function="internal">
        <lane id=":J0_1_14_0" index="0" speed="3.65" length="1.44" shape="332.33,105.21 333.52,106.02"/>
    </edge>
    <edge id=":J0_1_24" function="internal">
        <lane id=":J0_1_24_0" index="0" speed="9.17" length="14.70" shape="337.38,105.99 337.74,106.05 341.47,108.43 343.54,112.35 343.93,117.81"/>
    </edge>
    <edge id=":J0_1_25" function="internal">
        <lane id=":J0_1_25_0" index="0" speed="3.65" length="3.23" shape="333.52,106.02 333.91,106.82 333.50,107.62 332.29,108.41"/>
    </edge>
    <edge id=":J0_1_15" function="internal">
        <lane id=":J0_1_15_0" index="0" speed="6.38" length="9.04" shape="337.55,117.35 337.37,114.86 336.43,113.08 334.72,111.99 332.25,111.60"/>
    </edge>
    <edge id=":J0_1_16" function="internal">
        <lane id=":J0_1_16_0" index="0" speed="13.90" length="21.03" shape="337.55,117.35 338.30,96.46"/>
        <lane id=":J0_1_16_1" index="1" speed="13.90" length="21.03" shape="340.74,117.58 341.50,96.46"/>
    </edge>
    <edge id=":J0_1_18" function="internal">
        <lane id=":J0_1_18_0" index="0" speed="9.23" length="4.07" shape="340.74,117.58 341.60,113.60"/>
    </edge>
    <edge id=":J0_1_19" function="internal">
        <lane id=":J0_1_19_0" index="0" speed="3.65" length="1.44" shape="340.74,117.58 341.62,116.44"/>
    </edge>
    <edge id=":J0_1_26" function="internal">
        <lane id=":J0_1_26_0" index="0" speed="9.23" length="15.68" shape="341.60,113.60 341.89,112.23 344.46,108.59 348.44,106.68 353.85,106.47"/>
    </edge>
    <edge id=":J0_1_27" function="internal">
        <lane id=":J0_1_27_0" index="0" speed="3.65" length="3.23" shape="341.62,116.44 342.45,116.10 343.22,116.55 343.93,117.81"/>
    </edge>
    <edge id=":J0_2_0" function="internal">
        <lane id=":J0_2_0_0" index="0" speed="11.67" length="19.84" shape="541.48,145.55 538.75,139.79 535.69,135.56 532.30,132.85 528.58,131.67"/>
    </edge>
    <edge id=":J0_2_1" function="internal">
        <lane id=":J0_2_1_0" index="0" speed="15.50" length="28.35" shape="541.48,145.55 538.27,137.40 536.41,131.63 535.56,125.68 535.35,116.96"/>
        <lane id=":J0_2_1_1" index="1" speed="15.50" length="28.35" shape="544.46,144.38 541.37,136.56 539.58,131.03 538.75,125.33 538.55,116.96"/>
        <lane id=":J0_2_1_2" index="2" speed="15.50" length="28.35" shape="547.44,143.21 544.48,135.72 542.75,130.43 541.95,124.97 541.75,116.96"/>
    </edge>
    <edge id=":J0_2_4" function="internal">
        <lane id=":J0_2_4_0" index="0" speed="9.44" length="4.53" shape="547.44,143.21 546.45,138.79"/>
    </edge>
    <edge id=":J0_2_5" function="internal">
        <lane id=":J0_2_5_0" index="0" speed="3.65" length="1.44" shape="547.44,143.21 547.74,141.80"/>
    </edge>
    <edge id=":J0_2_22" function="internal">
        <lane id=":J0_2_22_0" index="0" speed="9.44" length="22.06" shape="546.45,138.79 545.84,136.05 547.52,131.06 552.49,128.23 560.73,127.57"/>
    </edge>
    <edge id=":J0_2_23" function="internal">
        <lane id=":J0_2_23_0" index="0" speed="3.65" length="3.23" shape="547.74,141.80 548.34,141.13 549.23,141.21 550.41,142.04"/>
    </edge>
    <edge id=":J0_2_6" function="internal">
        <lane id=":J0_2_6_0" index="0" speed="5.79" length="9.15" shape="560.46,133.96 557.79,134.22 556.21,135.26 555.74,137.09 556.37,139.70"/>
    </edge>
    <edge id=":J0_2_7" function="internal">
        <lane id=":J0_2_7_0" index="0" speed="13.90" length="31.86" shape="560.46,133.96 528.58,131.67"/>
        <lane id=":J0_2_7_1" index="1" speed="13.90" length="31.86" shape="560.60,130.76 528.92,128.49"/>
    </edge>
    <edge id=":J0_2_9" function="internal">
        <lane id=":J0_2_9_0" index="0" speed="10.86" length="8.60" shape="560.60,130.76 552.35,129.60 552.11,129.49"/>
    </edge>
    <edge id=":J0_2_10" function="internal">
        <lane id=":J0_2_10_0" index="0" speed="3.65" length="1.44" shape="560.60,130.76 559.43,129.91"/>
    </edge>
    <edge id=":J0_2_24" function="internal">
        <lane id=":J0_2_24_0" index="0" speed="10.86" length="17.56" shape="552.11,129.49 546.46,126.91 542.93,122.70 541.75,116.96"/>
    </edge>
    <edge id=":J0_2_25" function="internal">
        <lane id=":J0_2_25_0" index="0" speed="3.65" length="3.23" shape="559.43,129.91 559.07,129.10 559.50,128.31 560.73,127.57"/>
    </edge>
    <edge id=":J0_2_11" function="internal">
        <lane id=":J0_2_11_0" index="0" speed="7.95" length="13.54" shape="551.35,116.96 551.94,120.05 553.73,122.32 556.70,123.75 560.87,124.37"/>
    </edge>
    <edge id=":J0_2_12" function="internal">
        <lane id=":J0_2_12_0" index="0" speed="15.50" length="24.74" shape="551.35,116.96 551.54,123.90 552.26,128.63 553.79,133.21 556.37,139.70"/>
        <lane id=":J0_2_12_1" index="1" speed="15.50" length="24.74" shape="548.15,116.96 548.34,124.26 549.09,129.23 550.69,134.05 553.39,140.87"/>
        <lane id=":J0_2_12_2" index="2" speed="15.50" length="24.74" shape="544.95,116.96 545.14,124.61 545.92,129.83 547.58,134.89 550.41,142.04"/>
    </edge>
    <edge id=":J0_2_15" function="internal">
        <lane id=":J0_2_15_0" index="0" speed="9.69" length="3.62" shape="544.95,116.96 544.32,120.53"/>
    </edge>
    <edge id=":J0_2_16" function="internal">
        <lane id=":J0_2_16_0" index="0" speed="3.65" length="1.44" shape="544.95,116.96 544.15,118.16"/>
    </edge>
    <edge id=":J0_2_26" function="internal">
        <lane id=":J0_2_26_0" index="0" speed="9.69" length="19.40" shape="544.32,120.53 543.95,122.65 540.94,126.47 535.93,128.41 528.92,128.49"/>
    </edge>
    <edge id=":J0_2_27" function="internal">
        <lane id=":J0_2_27_0" index="0" speed="3.65" length="3.23" shape="544.15,118.16 543.35,118.56 542.55,118.16 541.75,116.96"/>
    </edge>
    <edge id=":J0_2_17" function="internal">
        <lane id=":J0_2_17_0" index="0" speed="6.29" length="9.04" shape="529.60,122.13 532.12,122.04 533.91,121.14 534.99,119.45 535.35,116.96"/>
    </edge>
    <edge id=":J0_2_18" function="internal">
        <lane id=":J0_2_18_0" index="0" speed="13.90" length="31.45" shape="529.60,122.13 560.87,124.37"/>
        <lane id=":J0_2_18_1" index="1" speed="13.90" length="31.45" shape="529.26,125.31 560.73,127.57"/>
    </edge>
    <edge id=":J0_2_20" function="internal">
        <lane id=":J0_2_20_0" index="0" speed="13.91" length="4.45" shape="529.26,125.31 533.59,126.33"/>
    </edge>
    <edge id=":J0_2_21" function="internal">
        <lane id=":J0_2_21_0" index="0" speed="3.65" length="1.44" shape="529.26,125.31 530.37,126.23"/>
    </edge>
    <edge id=":J0_2_28" function="internal">
        <lane id=":J0_2_28_0" index="0" speed="13.91" length="23.99" shape="533.59,126.33 536.29,126.97 542.16,130.31 546.87,135.33 550.41,142.04"/>
    </edge>
    <edge id=":J0_2_29" function="internal">
        <lane id=":J0_2_29_0" index="0" speed="3.65" length="3.23" shape="530.37,126.23 530.68,127.07 530.20,127.82 528.92,128.49"/>
    </edge>
    <edge id=":J0_3_0" function="internal">
        <lane id=":J0_3_0_0" index="0" speed="8.73" length="22.10" shape="755.18,151.42 753.75,149.24 749.97,149.07 743.84,150.90 735.36,154.73"/>
    </edge>
    <edge id=":J0_3_1" function="internal">
        <lane id=":J0_3_1_0" index="0" speed="11.79" length="29.05" shape="755.18,151.42 753.33,147.32 748.52,144.24 740.74,142.19 729.99,141.16"/>
    </edge>
    <edge id=":J0_3_2" function="internal">
        <lane id=":J0_3_2_0" index="0" speed="13.90" length="24.41" shape="755.18,151.42 754.10,126.90"/>
        <lane id=":J0_3_2_1" index="1" speed="13.90" length="24.41" shape="758.37,151.16 757.30,126.90"/>
    </edge>
    <edge id=":J0_3_4" function="internal">
        <lane id=":J0_3_4_0" index="0" speed="9.58" length="6.85" shape="758.37,151.16 758.64,144.52 758.72,144.33"/>
    </edge>
    <edge id=":J0_3_5" function="internal">
        <lane id=":J0_3_5_0" index="0" speed="3.65" length="1.44" shape="758.37,151.16 759.08,149.90"/>
    </edge>
    <edge id=":J0_3_30" function="internal">
        <lane id=":J0_3_30_0" index="0" speed="9.58" length="15.18" shape="758.72,144.33 760.63,139.78 764.36,136.93 769.83,135.98"/>
    </edge>
    <edge id=":J0_3_31" function="internal">
        <lane id=":J0_3_31_0" index="0" speed="3.65" length="3.23" shape="759.08,149.90 759.84,149.44 760.67,149.78 761.56,150.91"/>
    </edge>
    <edge id=":J0_3_6" function="internal">
        <lane id=":J0_3_6_0" index="0" speed="6.97" length="11.15" shape="769.83,142.38 767.36,142.90 765.69,144.45 764.82,147.04 764.75,150.66"/>
    </edge>
    <edge id=":J0_3_7" function="internal">
        <lane id=":J0_3_7_0" index="0" speed="12.95" length="36.85" shape="769.83,142.38 761.48,143.68 752.20,146.88 743.11,150.91 735.36,154.73"/>
    </edge>
    <edge id=":J0_3_8" function="internal">
        <lane id=":J0_3_8_0" index="0" speed="13.90" length="39.79" shape="769.83,142.38 729.99,141.16"/>
        <lane id=":J0_3_8_1" index="1" speed="13.90" length="39.79" shape="769.83,139.18 730.13,137.96"/>
    </edge>
    <edge id=":J0_3_10" function="internal">
        <lane id=":J0_3_10_0" index="0" speed="9.40" length="5.53" shape="769.83,139.18 764.35,138.41"/>
    </edge>
    <edge id=":J0_3_11" function="internal">
        <lane id=":J0_3_11_0" index="0" speed="3.65" length="1.44" shape="769.83,139.18 768.63,138.38"/>
    </edge>
    <edge id=":J0_3_32" function="internal">
        <lane id=":J0_3_32_0" index="0" speed="9.40" length="14.47" shape="764.35,138.41 760.43,136.11 758.08,132.27 757.30,126.90"/>
    </edge>
    <edge id=":J0_3_33" function="internal">
        <lane id=":J0_3_33_0" index="0" speed="3.65" length="3.23" shape="768.63,138.38 768.23,137.58 768.63,136.78 769.83,135.98"/>
    </edge>
    <edge id=":J0_3_12" function="internal">
        <lane id=":J0_3_12_0" index="0" speed="6.71" length="9.68" shape="763.70,126.90 764.08,129.47 765.23,131.31 767.15,132.41 769.83,132.78"/>
    </edge>
    <edge id=":J0_3_13" function="internal">
        <lane id=":J0_3_13_0" index="0" speed="13.90" length="23.90" shape="763.70,126.90 764.75,150.66"/>
        <lane id=":J0_3_13_1" index="1" speed="13.90" length="23.90" shape="760.50,126.90 761.56,150.91"/>
    </edge>
    <edge id=":J0_3_15" function="internal">
        <lane id=":J0_3_15_0" index="0" speed="12.95" length="2.38" shape="760.50,126.90 759.86,129.19"/>
    </edge>
    <edge id=":J0_3_16" function="internal">
        <lane id=":J0_3_16_0" index="0" speed="12.18" length="2.02" shape="760.50,126.90 759.82,128.81"/>
    </edge>
    <edge id=":J0_3_17" function="internal">
        <lane id=":J0_3_17_0" index="0" speed="3.65" length="1.44" shape="760.50,126.90 759.70,128.10"/>
    </edge>
    <edge id=":J0_3_34" function="internal">
        <lane id=":J0_3_34_0" index="0" speed="12.95" length="35.48" shape="759.86,129.19 758.84,132.84 753.86,138.98 745.55,145.32 733.93,151.87"/>
    </edge>
    <edge id=":J0_3_35" function="internal">
        <lane id=":J0_3_35_0" index="0" speed="12.18" length="33.34" shape="759.82,128.81 758.60,132.22 752.91,135.84 743.42,137.75 730.13,137.96"/>
    </edge>
    <edge id=":J0_3_36" function="internal">
        <lane id=":J0_3_36_0" index="0" speed="3.65" length="3.23" shape="759.70,128.10 758.90,128.50 758.10,128.10 757.30,126.90"/>
    </edge>
    <edge id=":J0_3_18" function="internal">
        <lane id=":J0_3_18_0" index="0" speed="10.37" length="25.37" shape="730.40,131.57 740.77,131.65 748.18,130.90 752.62,129.32 754.10,126.90"/>
    </edge>
    <edge id=":J0_3_19" function="internal">
        <lane id=":J0_3_19_0" index="0" speed="13.90" length="39.51" shape="730.40,131.57 769.83,132.78"/>
        <lane id=":J0_3_19_1" index="1" speed="13.90" length="39.51" shape="730.26,134.76 769.83,135.98"/>
    </edge>
    <edge id=":J0_3_21" function="internal">
        <lane id=":J0_3_21_0" index="0" speed="13.47" length="8.67" shape="730.26,134.76 738.88,135.73"/>
    </edge>
    <edge id=":J0_3_22" function="internal">
        <lane id=":J0_3_22_0" index="0" speed="7.72" length="2.30" shape="730.26,134.76 732.41,135.58"/>
    </edge>
    <edge id=":J0_3_23" function="internal">
        <lane id=":J0_3_23_0" index="0" speed="3.65" length="1.44" shape="730.26,134.76 731.43,135.61"/>
    </edge>
    <edge id=":J0_3_37" function="internal">
        <lane id=":J0_3_37_0" index="0" speed="13.47" length="29.57" shape="738.88,135.73 743.52,136.25 753.15,139.44 759.16,144.32 761.56,150.91"/>
    </edge>
    <edge id=":J0_3_38" function="internal">
        <lane id=":J0_3_38_0" index="0" speed="7.72" length="21.53" shape="732.41,135.58 736.16,137.00 739.00,141.84 738.39,147.42 733.93,151.87"/>
    </edge>
    <edge id=":J0_3_39" function="internal">
        <lane id=":J0_3_39_0" index="0" speed="3.65" length="3.23" shape="731.43,135.61 731.80,136.43 731.36,137.21 730.13,137.96"/>
    </edge>
    <edge id=":J0_3_24" function="internal">
        <lane id=":J0_3_24_0" index="0" speed="5.54" length="11.37" shape="731.06,146.15 734.41,144.13 735.35,142.62 733.88,141.63 729.99,141.16"/>
    </edge>
    <edge id=":J0_3_25" function="internal">
        <lane id=":J0_3_25_0" index="0" speed="12.95" length="30.92" shape="731.06,146.15 741.14,140.62 748.34,135.57 752.66,131.00 754.10,126.90"/>
    </edge>
    <edge id=":J0_3_26" function="internal">
        <lane id=":J0_3_26_0" index="0" speed="12.95" length="40.49" shape="731.06,146.15 739.48,142.17 750.05,137.78 760.81,134.24 769.83,132.78"/>
        <lane id=":J0_3_26_1" index="1" speed="12.95" length="40.49" shape="732.49,149.01 740.69,145.08 750.76,140.82 761.03,137.39 769.83,135.98"/>
    </edge>
    <edge id=":J0_3_28" function="internal">
        <lane id=":J0_3_28_0" index="0" speed="10.87" length="35.04" shape="732.49,149.01 742.99,144.39 752.06,142.30 758.61,144.03 761.56,150.91"/>
    </edge>
    <edge id=":J0_3_29" function="internal">
        <lane id=":J0_3_29_0" index="0" speed="3.65" length="2.34" shape="732.49,149.01 733.92,149.19 734.64,149.72"/>
    </edge>
    <edge id=":J0_3_40" function="internal">
        <lane id=":J0_3_40_0" index="0" speed="3.65" length="2.34" shape="734.64,149.72 734.64,150.62 733.93,151.87"/>
    </edge>
    <edge id=":J1_0_0" function="internal">
        <lane id=":J1_0_0_0" index="0" speed="7.01" length="9.87" shape="99.61,256.00 99.00,253.19 97.78,251.18 95.96,249.97 93.54,249.57"/>
    </edge>
    <edge id=":J1_0_1" function="internal">
        <lane id=":J1_0_1_0" index="0" speed="13.90" length="24.32" shape="99.61,256.00 99.21,249.32 99.44,243.59 100.33,237.92 101.89,231.39"/>
        <lane id=":J1_0_1_1" index="1" speed="13.90" length="24.32" shape="102.80,255.70 102.38,249.19 102.58,243.84 103.44,238.55 104.98,232.20"/>
    </edge>
    <edge id=":J1_0_3" function="internal">
        <lane id=":J1_0_3_0" index="0" speed="9.46" length="5.26" shape="102.80,255.70 103.15,250.45"/>
    </edge>
    <edge id=":J1_0_4" function="internal">
        <lane id=":J1_0_4_0" index="0" speed="3.65" length="1.44" shape="102.80,255.70 103.48,254.42"/>
    </edge>
    <edge id=":J1_0_20" function="internal">
        <lane id=":J1_0_20_0" index="0" speed="9.46" length="15.99" shape="103.15,250.45 103.16,250.21 105.46,246.23 109.70,243.75 115.86,242.76"/>
    </edge>
    <edge id=":J1_0_21" function="internal">
        <lane id=":J1_0_21_0" index="0" speed="3.65" length="3.23" shape="103.48,254.42 104.24,253.95 105.07,254.27 105.98,255.39"/>
    </edge>
    <edge id=":J1_0_5" function="internal">
        <lane id=":J1_0_5_0" index="0" speed="6.81" length="10.46" shape="116.07,249.16 112.84,249.62 110.62,250.76 109.39,252.58 109.17,255.08"/>
    </edge>
    <edge id=":J1_0_6" function="internal">
        <lane id=":J1_0_6_0" index="0" speed="13.90" length="22.48" shape="116.07,249.16 93.54,249.57"/>
        <lane id=":J1_0_6_1" index="1" speed="13.90" length="22.48" shape="115.97,245.96 93.54,246.37"/>
    </edge>
    <edge id=":J1_0_8" function="internal">
        <lane id=":J1_0_8_0" index="0" speed="8.91" length="5.56" shape="115.97,245.96 110.44,245.36"/>
    </edge>
    <edge id=":J1_0_9" function="internal">
        <lane id=":J1_0_9_0" index="0" speed="3.65" length="1.44" shape="115.97,245.96 114.74,245.20"/>
    </edge>
    <edge id=":J1_0_22" function="internal">
        <lane id=":J1_0_22_0" index="0" speed="8.91" length="16.21" shape="110.44,245.36 109.77,245.28 105.87,242.76 104.27,238.40 104.98,232.20"/>
    </edge>
    <edge id=":J1_0_23" function="internal">
        <lane id=":J1_0_23_0" index="0" speed="3.65" length="3.23" shape="114.74,245.20 114.32,244.41 114.69,243.60 115.86,242.76"/>
    </edge>
    <edge id=":J1_0_10" function="internal">
        <lane id=":J1_0_10_0" index="0" speed="5.97" length="9.08" shape="111.17,233.82 110.88,236.41 111.54,238.23 113.17,239.28 115.76,239.57"/>
    </edge>
    <edge id=":J1_0_11" function="internal">
        <lane id=":J1_0_11_0" index="0" speed="13.90" length="22.09" shape="111.17,233.82 109.66,239.82 108.86,244.35 108.72,248.92 109.17,255.08"/>
        <lane id=":J1_0_11_1" index="1" speed="13.90" length="22.09" shape="108.08,233.01 106.55,239.19 105.72,244.10 105.55,249.05 105.98,255.39"/>
    </edge>
    <edge id=":J1_0_13" function="internal">
        <lane id=":J1_0_13_0" index="0" speed="10.78" length="5.69" shape="108.08,233.01 106.06,238.33"/>
    </edge>
    <edge id=":J1_0_14" function="internal">
        <lane id=":J1_0_14_0" index="0" speed="3.65" length="1.44" shape="108.08,233.01 107.00,233.97"/>
    </edge>
    <edge id=":J1_0_24" function="internal">