<edges>
    <edge id="E0_P2_P0" from="P2" to="P0" numLanes="1" speed="13.9" shape="90.0,477.43 151.52,450.01 274.61,437.86 404.08,426.59"/>
    <edge id="E0_P0_P2" from="P0" to="P2" numLanes="1" speed="13.9" shape="404.08,426.59 274.61,437.86 151.52,450.01 90.0,477.43"/>
    <edge id="E1_P0_P1" from="P0" to="P1" numLanes="1" speed="13.9" shape="404.08,426.59 520.78,407.55 582.3,438.76 621.05,442.52"/>
    <edge id="E1_P1_P0" from="P1" to="P0" numLanes="1" speed="13.9" shape="621.05,442.52 582.3,438.76 520.78,407.55 404.08,426.59"/>
    <edge id="E2_P1_P3" from="P1" to="P3" numLanes="1" speed="13.9" shape="621.05,442.52 705.39,499.11 766.91,539.21 828.48,551.95 890.0,559.11"/>
    <edge id="E2_P3_P1" from="P3" to="P1" numLanes="1" speed="13.9" shape="890.0,559.11 828.48,551.95 766.91,539.21 705.39,499.11 621.05,442.52"/>
    <edge id="E3_P4_P0" from="P4" to="P0" numLanes="1" speed="13.9" shape="90.0,442.99 213.09,448.18 336.17,445.56 404.08,426.59"/>
    <edge id="E3_P0_P4" from="P0" to="P4" numLanes="1" speed="13.9" shape="404.08,426.59 336.17,445.56 213.09,448.18 90.0,442.99"/>
    <edge id="E4_P5_P0" from="P5" to="P0" numLanes="1" speed="13.9" shape="481.82,534.71 428.33,502.95 399.09,471.18 404.08,426.59"/>
    <edge id="E4_P0_P5" from="P0" to="P5" numLanes="1" speed="13.9" shape="404.08,426.59 399.09,471.18 428.33,502.95 481.82,534.71"/>
    <edge id="E5_P0_P6" from="P0" to="P6" numLanes="1" speed="13.9" shape="404.08,426.59 444.37,375.89 436.98,312.36 434.36,248.82 434.22,185.29 451.65,121.76 452.26,90.0"/>
    <edge id="E5_P6_P0" from="P6" to="P0" numLanes="1" speed="13.9" shape="452.26,90.0 451.65,121.76 434.22,185.29 434.36,248.82 436.98,312.36 444.37,375.89 404.08,426.59"/>
    <edge id="E6_P7_P1" from="P7" to="P1" numLanes="1" speed="13.9" shape="787.76,630.0 751.88,598.24 743.45,534.71 717.77,502.95 648.85,471.18 621.05,442.52"/>
    <edge id="E6_P1_P7" from="P1" to="P7" numLanes="1" speed="13.9" shape="621.05,442.52 648.85,471.18 717.77,502.95 743.45,534.71 751.88,598.24 787.76,630.0"/>
    <edge id="E7_P1_P8" from="P1" to="P8" numLanes="1" speed="13.9" shape="621.05,442.52 618.25,407.64 684.76,344.11 717.16,312.36 762.47,280.6 768.28,217.07 815.52,153.53"/>
    <edge id="E7_P8_P1" from="P8" to="P1" numLanes="1" speed="13.9" shape="815.52,153.53 768.28,217.07 762.47,280.6 717.16,312.36 684.76,344.11 618.25,407.64 621.05,442.52"/>
</edges>