<?xml version="1.0" encoding="UTF-8"?>

<!-- generated on 2026-04-12T18:11:44.203041+05:30 by Eclipse SUMO netconvert 1.26.0
<netconvertConfiguration xmlns:xsi="http://www.w3.org/2001/XMLSchema-instance" xsi:noNamespaceSchemaLocation="http://sumo.dlr.de/xsd/netconvertConfiguration.xsd">

    <input>
        <node-files value="C:\Users\santhosh\OneDrive\Desktop\trafiic pro\web_runs\20260412_181143_796262\area.nod.xml"/>
        <edge-files value="C:\Users\santhosh\OneDrive\Desktop\trafiic pro\web_runs\20260412_181143_796262\area.edg.xml"/>
    </input>

    <output>
        <output-file value="C:\Users\santhosh\OneDrive\Desktop\trafiic pro\web_runs\20260412_181143_796262\area.net.xml"/>
    </output>

    <building_defaults>
        <default.lanewidth value="1.5"/>
    </building_defaults>

    <junctions>
        <junctions.corner-detail value="0"/>
    </junctions>

</netconvertConfiguration>
-->

<net version="1.20" limitTurnSpeed="5.50" xmlns:xsi="http://www.w3.org/2001/XMLSchema-instance" xsi:noNamespaceSchemaLocation="http://sumo.dlr.de/xsd/net_file.xsd">

    <location netOffset="-50.00,-50.00" convBoundary="0.00,0.00,600.00,360.00" origBoundary="50.00,50.00,650.00,410.00" projParameter="!"/>

    <edge id=":P0_0" function="internal">
        <lane id=":P0_0_0" index="0" speed="13.90" length="11.00" width="1.50" shape="-0.75,185.50 -0.75,174.50"/>
    </edge>
    <edge id=":P0_1" function="internal">
        <lane id=":P0_1_0" index="0" speed="6.66" length="10.08" width="1.50" shape="-0.75,185.50 -0.36,182.77 0.81,180.81 2.77,179.64 5.50,179.25"/>
    </edge>
    <edge id=":P0_2" function="internal">
        <lane id=":P0_2_0" index="0" speed="2.22" length="1.50" width="1.50" shape="-0.75,185.50 0.75,185.50"/>
    </edge>
    <edge id=":P0_3" function="internal">
        <lane id=":P0_3_0" index="0" speed="2.50" length="1.10" width="1.50" shape="-0.75,185.50 -0.38,184.94 0.00,184.75"/>
    </edge>
    <edge id=":P0_16" function="internal">
        <lane id=":P0_16_0" index="0" speed="2.50" length="1.10" width="1.50" shape="0.00,184.75 0.38,184.94 0.75,185.50"/>
    </edge>
    <edge id=":P0_4" function="internal">
        <lane id=":P0_4_0" index="0" speed="13.90" length="11.00" width="1.50" shape="-0.75,185.50 -0.75,174.50"/>
    </edge>
    <edge id=":P0_5" function="internal">
        <lane id=":P0_5_0" index="0" speed="6.66" length="10.08" width="1.50" shape="-0.75,185.50 -0.36,182.77 0.81,180.81 2.77,179.64 5.50,179.25"/>
    </edge>
    <edge id=":P0_6" function="internal">
        <lane id=":P0_6_0" index="0" speed="2.22" length="1.50" width="1.50" shape="-0.75,185.50 0.75,185.50"/>
    </edge>
    <edge id=":P0_7" function="internal">
        <lane id=":P0_7_0" index="0" speed="2.50" length="1.10" width="1.50" shape="-0.75,185.50 -0.38,184.94 0.00,184.75"/>
    </edge>
    <edge id=":P0_17" function="internal">
        <lane id=":P0_17_0" index="0" speed="2.50" length="1.10" width="1.50" shape="0.00,184.75 0.38,184.94 0.75,185.50"/>
    </edge>
    <edge id=":P0_8" function="internal">
        <lane id=":P0_8_0" index="0" speed="5.85" length="7.66" width="1.50" shape="5.50,180.75 3.42,181.05 1.94,181.94 1.05,183.42 0.75,185.50"/>
    </edge>
    <edge id=":P0_9" function="internal">
        <lane id=":P0_9_0" index="0" speed="5.85" length="7.66" width="1.50" shape="5.50,180.75 3.42,181.05 1.94,181.94 1.05,183.42 0.75,185.50"/>
    </edge>
    <edge id=":P0_10" function="internal">
        <lane id=":P0_10_0" index="0" speed="6.66" length="10.08" width="1.50" shape="5.50,180.75 2.77,180.36 0.81,179.19 -0.36,177.23 -0.75,174.50"/>
    </edge>
    <edge id=":P0_11" function="internal">
        <lane id=":P0_11_0" index="0" speed="2.50" length="1.10" width="1.50" shape="5.50,180.75 4.94,180.38 4.75,180.00"/>
    </edge>
    <edge id=":P0_18" function="internal">
        <lane id=":P0_18_0" index="0" speed="2.50" length="1.10" width="1.50" shape="4.75,180.00 4.94,179.62 5.50,179.25"/>
    </edge>
    <edge id=":P0_12" function="internal">
        <lane id=":P0_12_0" index="0" speed="5.85" length="7.66" width="1.50" shape="0.75,174.50 1.05,176.58 1.94,178.06 3.42,178.95 5.50,179.25"/>
    </edge>
    <edge id=":P0_13" function="internal">
        <lane id=":P0_13_0" index="0" speed="13.90" length="11.00" width="1.50" shape="0.75,174.50 0.75,185.50"/>
    </edge>
    <edge id=":P0_14" function="internal">
        <lane id=":P0_14_0" index="0" speed="13.90" length="11.00" width="1.50" shape="0.75,174.50 0.75,185.50"/>
    </edge>
    <edge id=":P0_15" function="internal">
        <lane id=":P0_15_0" index="0" speed="2.50" length="1.87" width="1.50" shape="0.75,174.50 0.38,175.06 0.00,175.25 -0.38,175.06 -0.57,174.77"/>
    </edge>
    <edge id=":P0_19" function="internal">
        <lane id=":P0_19_0" index="0" speed="2.50" length="0.32" width="1.50" shape="-0.57,174.77 -0.75,174.50"/>
    </edge>
    <edge id=":P1_0" function="internal">
        <lane id=":P1_0_0" index="0" speed="5.85" length="7.66" width="1.50" shape="299.25,185.50 298.95,183.42 298.06,181.94 296.58,181.05 294.50,180.75"/>
    </edge>
    <edge id=":P1_1" function="internal">
        <lane id=":P1_1_0" index="0" speed="13.90" length="11.00" width="1.50" shape="299.25,185.50 299.25,174.50"/>
    </edge>
    <edge id=":P1_2" function="internal">
        <lane id=":P1_2_0" index="0" speed="6.66" length="4.71" width="1.50" shape="299.25,185.50 299.64,182.77 300.64,181.09"/>
    </edge>
    <edge id=":P1_3" function="internal">
        <lane id=":P1_3_0" index="0" speed="2.50" length="1.87" width="1.50" shape="299.25,185.50 299.62,184.94 300.00,184.75 300.38,184.94 300.57,185.23"/>
    </edge>
    <edge id=":P1_16" function="internal">
        <lane id=":P1_16_0" index="0" speed="6.66" length="5.37" width="1.50" shape="300.64,181.09 300.81,180.81 302.77,179.64 305.50,179.25"/>
    </edge>
    <edge id=":P1_17" function="internal">
        <lane id=":P1_17_0" index="0" speed="2.50" length="0.32" width="1.50" shape="300.57,185.23 300.75,185.50"/>
    </edge>
    <edge id=":P1_4" function="internal">
        <lane id=":P1_4_0" index="0" speed="5.85" length="7.66" width="1.50" shape="305.50,180.75 303.42,181.05 301.94,181.94 301.05,183.42 300.75,185.50"/>
    </edge>
    <edge id=":P1_5" function="internal">
        <lane id=":P1_5_0" index="0" speed="13.90" length="11.00" width="1.50" shape="305.50,180.75 294.50,180.75"/>
    </edge>
    <edge id=":P1_6" function="internal">
        <lane id=":P1_6_0" index="0" speed="6.66" length="4.71" width="1.50" shape="305.50,180.75 302.77,180.36 301.09,179.36"/>
    </edge>
    <edge id=":P1_7" function="internal">
        <lane id=":P1_7_0" index="0" speed="2.50" length="1.87" width="1.50" shape="305.50,180.75 304.94,180.38 304.75,180.00 304.94,179.62 305.23,179.43"/>
    </edge>
    <edge id=":P1_18" function="internal">
        <lane id=":P1_18_0" index="0" speed="6.66" length="5.37" width="1.50" shape="301.09,179.36 300.81,179.19 299.64,177.23 299.25,174.50"/>
    </edge>
    <edge id=":P1_19" function="internal">
        <lane id=":P1_19_0" index="0" speed="2.50" length="0.32" width="1.50" shape="305.23,179.43 305.50,179.25"/>
    </edge>
    <edge id=":P1_8" function="internal">
        <lane id=":P1_8_0" index="0" speed="5.85" length="7.66" width="1.50" shape="300.75,174.50 301.05,176.58 301.94,178.06 303.42,178.95 305.50,179.25"/>
    </edge>
    <edge id=":P1_9" function="internal">
        <lane id=":P1_9_0" index="0" speed="13.90" length="11.00" width="1.50" shape="300.75,174.50 300.75,185.50"/>
    </edge>
    <edge id=":P1_10" function="internal">
        <lane id=":P1_10_0" index="0" speed="6.66" length="4.71" width="1.50" shape="300.75,174.50 300.36,177.23 299.36,178.91"/>
    </edge>
    <edge id=":P1_11" function="internal">
        <lane id=":P1_11_0" index="0" speed="2.50" length="1.87" width="1.50" shape="300.75,174.50 300.38,175.06 300.00,175.25 299.62,175.06 299.43,174.77"/>
    </edge>
    <edge id=":P1_20" function="internal">
        <lane id=":P1_20_0" index="0" speed="6.66" length="5.37" width="1.50" shape="299.36,178.91 299.19,179.19 297.23,180.36 294.50,180.75"/>
    </edge>
    <edge id=":P1_21" function="internal">
        <lane id=":P1_21_0" index="0" speed="2.50" length="0.32" width="1.50" shape="299.43,174.77 299.25,174.50"/>
    </edge>
    <edge id=":P1_12" function="internal">
        <lane id=":P1_12_0" index="0" speed="5.85" length="7.66" width="1.50" shape="294.50,179.25 296.58,178.95 298.06,178.06 298.95,176.58 299.25,174.50"/>
    </edge>
    <edge id=":P1_13" function="internal">
        <lane id=":P1_13_0" index="0" speed="13.90" length="11.00" width="1.50" shape="294.50,179.25 305.50,179.25"/>
    </edge>
    <edge id=":P1_14" function="internal">
        <lane id=":P1_14_0" index="0" speed="6.66" length="4.71" width="1.50" shape="294.50,179.25 297.23,179.64 298.91,180.64"/>
    </edge>
    <edge id=":P1_15" function="internal">
        <lane id=":P1_15_0" index="0" speed="2.50" length="1.87" width="1.50" shape="294.50,179.25 295.06,179.62 295.25,180.00 295.06,180.38 294.77,180.57"/>
    </edge>
    <edge id=":P1_22" function="internal">
        <lane id=":P1_22_0" index="0" speed="6.66" length="5.37" width="1.50" shape="298.91,180.64 299.19,180.81 300.36,182.77 300.75,185.50"/>
    </edge>
    <edge id=":P1_23" function="internal">
        <lane id=":P1_23_0" index="0" speed="2.50" length="0.32" width="1.50" shape="294.77,180.57 294.50,180.75"/>
    </edge>
    <edge id=":P2_0" function="internal">
        <lane id=":P2_0_0" index="0" speed="2.50" length="2.19" width="1.50" shape="600.00,179.25 600.56,179.62 600.75,180.00 600.56,180.38 600.00,180.75"/>
    </edge>
    <edge id=":P3_0" function="internal">
        <lane id=":P3_0_0" index="0" speed="2.50" length="2.19" width="1.50" shape="0.75,360.00 0.38,360.56 0.00,360.75 -0.38,360.56 -0.75,360.00"/>
    </edge>
    <edge id=":P4_0" function="internal">
        <lane id=":P4_0_0" index="0" speed="2.50" length="2.19" width="1.50" shape="-0.75,0.00 -0.38,-0.56 0.00,-0.75 0.38,-0.56 0.75,0.00"/>
    </edge>
    <edge id=":P5_0" function="internal">
        <lane id=":P5_0_0" index="0" speed="4.16" length="3.63" width="1.50" shape="300.75,358.50 300.61,359.48 300.19,360.19 299.48,360.61 298.50,360.75"/>
    </edge>
    <edge id=":P5_1" function="internal">
        <lane id=":P5_1_0" index="0" speed="2.67" length="1.21" width="1.50" shape="298.50,359.25 298.83,359.20 299.06,359.06 299.20,358.83 299.25,358.50"/>
    </edge>
    <edge id=":P6_0" function="internal">
        <lane id=":P6_0_0" index="0" speed="2.50" length="2.19" width="1.50" shape="299.25,0.00 299.62,-0.56 300.00,-0.75 300.38,-0.56 300.75,0.00"/>
    </edge>

    <edge id="E0_P0_P1" from="P0" to="P1" priority="-1">
        <lane id="E0_P0_P1_0" index="0" speed="13.90" length="289.00" width="1.50" shape="5.50,179.25 294.50,179.25"/>
    </edge>
    <edge id="E0_P1_P0" from="P1" to="P0" priority="-1">
        <lane id="E0_P1_P0_0" index="0" speed="13.90" length="289.00" width="1.50" shape="294.50,180.75 5.50,180.75"/>
    </edge>
    <edge id="E1_P1_P2" from="P1" to="P2" priority="-1">
        <lane id="E1_P1_P2_0" index="0" speed="13.90" length="294.50" width="1.50" shape="305.50,179.25 600.00,179.25"/>
    </edge>
    <edge id="E1_P2_P1" from="P2" to="P1" priority="-1">
        <lane id="E1_P2_P1_0" index="0" speed="13.90" length="294.50" width="1.50" shape="600.00,180.75 305.50,180.75"/>
    </edge>
    <edge id="E2_P0_P3" from="P0" to="P3" priority="-1">
        <lane id="E2_P0_P3_0" index="0" speed="13.90" length="174.50" width="1.50" shape="0.75,185.50 0.75,360.00"/>
    </edge>
    <edge id="E2_P3_P0" from="P3" to="P0" priority="-1">
        <lane id="E2_P3_P0_0" index="0" speed="13.90" length="174.50" width="1.50" shape="-0.75,360.00 -0.75,185.50"/>
    </edge>
    <edge id="E3_P0_P4" from="P0" to="P4" priority="-1">
        <lane id="E3_P0_P4_0" index="0" speed="13.90" length="174.50" width="1.50" shape="-0.75,174.50 -0.75,0.00"/>
    </edge>
    <edge id="E3_P4_P0" from="P4" to="P0" priority="-1">
        <lane id="E3_P4_P0_0" index="0" speed="13.90" length="174.50" width="1.50" shape="0.75,0.00 0.75,174.50"/>
    </edge>
    <edge id="E4_P0_P5" from="P0" to="P5" priority="-1" shape="0.00,180.00 0.00,360.00 300.00,360.00">
        <lane id="E4_P0_P5_0" index="0" speed="13.90" length="471.50" width="1.50" shape="0.75,185.50 0.75,359.25 298.50,359.25"/>
    </edge>
    <edge id="E4_P5_P0" from="P5" to="P0" priority="-1" shape="300.00,360.00 0.00,360.00 0.00,180.00">
        <lane id="E4_P5_P0_0" index="0" speed="13.90" length="474.50" width="1.50" shape="298.50,360.75 -0.75,360.75 -0.75,185.50"/>
    </edge>
    <edge id="E5_P1_P5" from="P1" to="P5" priority="-1">
        <lane id="E5_P1_P5_0" index="0" speed="13.90" length="173.00" width="1.50" shape="300.75,185.50 300.75,358.50"/>
    </edge>
    <edge id="E5_P5_P1" from="P5" to="P1" priority="-1">
        <lane id="E5_P5_P1_0" index="0" speed="13.90" length="173.00" width="1.50" shape="299.25,358.50 299.25,185.50"/>
    </edge>
    <edge id="E6_P1_P6" from="P1" to="P6" priority="-1">
        <lane id="E6_P1_P6_0" index="0" speed="13.90" length="174.50" width="1.50" shape="299.25,174.50 299.25,0.00"/>
    </edge>
    <edge id="E6_P6_P1" from="P6" to="P1" priority="-1">
        <lane id="E6_P6_P1_0" index="0" speed="13.90" length="174.50" width="1.50" shape="300.75,0.00 300.75,174.50"/>
    </edge>

    <tlLogic id="P0" type="static" programID="0" offset="0">
        <phase duration="18" state="GrrrrrrrrrrrGGGg"/>
        <phase duration="3"  state="yrrrrrrrrrrryyyy"/>
        <phase duration="20" state="rrrrGGGgGrrrrrrr"/>
        <phase duration="3"  state="rrrryyGyyrrrrrrr"/>
        <phase duration="20" state="GGGgrrGrrrrrrrrr"/>
        <phase duration="3"  state="yyyyrryrrrrrrrrr"/>
        <phase duration="20" state="rrrrrrrrGGGgGrrr"/>
        <phase duration="3"  state="rrrrrrrryyyyGrrr"/>
    </tlLogic>
    <tlLogic id="P1" type="static" programID="0" offset="0">
        <phase duration="42" state="GGggrrrrGGggrrrr"/>
        <phase duration="3"  state="yyyyrrrryyyyrrrr"/>
        <phase duration="42" state="rrrrGGggrrrrGGgg"/>
        <phase duration="3"  state="rrrryyyyrrrryyyy"/>
    </tlLogic>

    <junction id="P0" type="traffic_light" x="0.00" y="180.00" incLanes="E2_P3_P0_0 E4_P5_P0_0 E0_P1_P0_0 E3_P4_P0_0" intLanes=":P0_0_0 :P0_1_0 :P0_2_0 :P0_16_0 :P0_4_0 :P0_5_0 :P0_6_0 :P0_17_0 :P0_8_0 :P0_9_0 :P0_10_0 :P0_18_0 :P0_12_0 :P0_13_0 :P0_14_0 :P0_19_0" shape="-1.50,185.50 1.50,185.50 5.50,181.50 5.50,178.50 1.50,174.50 -1.50,174.50">
        <request index="0"  response="0000000000000000" foes="1000010000010000" cont="0"/>
        <request index="1"  response="0111000001000000" foes="0111110001110000" cont="0"/>
        <request index="2"  response="0110000001000000" foes="0110001111110000" cont="0"/>
        <request index="3"  response="0100001001000000" foes="0100001001000000" cont="1"/>
        <request index="4"  response="0100000000000111" foes="1100011000000111" cont="0"/>
        <request index="5"  response="0011000000000110" foes="0011111000000110" cont="0"/>
        <request index="6"  response="0100000000000000" foes="0100001000001110" cont="0"/>
        <request index="7"  response="0010000100000100" foes="0010000100000100" cont="1"/>
        <request index="8"  response="0010000000000100" foes="0010000010000100" cont="0"/>
        <request index="9"  response="0110000001110100" foes="0110000001111100" cont="0"/>
        <request index="10" response="0110000000110011" foes="1110000000110011" cont="0"/>
        <request index="11" response="0001000000100010" foes="0001000000100010" cont="1"/>
        <request index="12" response="0000000000000000" foes="0000100000100010" cont="0"/>
        <request index="13" response="0000000000000000" foes="0000011110100110" cont="0"/>
        <request index="14" response="0000000000000000" foes="0000011001011110" cont="0"/>
        <request index="15" response="0000010000010001" foes="0000010000010001" cont="1"/>
    </junction>
    <junction id="P1" type="traffic_light" x="300.00" y="180.00" incLanes="E5_P5_P1_0 E1_P2_P1_0 E6_P6_P1_0 E0_P0_P1_0" intLanes=":P1_0_0 :P1_1_0 :P1_16_0 :P1_17_0 :P1_4_0 :P1_5_0 :P1_18_0 :P1_19_0 :P1_8_0 :P1_9_0 :P1_20_0 :P1_21_0 :P1_12_0 :P1_13_0 :P1_22_0 :P1_23_0" shape="298.50,185.50 301.50,185.50 305.50,181.50 305.50,178.50 301.50,174.50 298.50,174.50 294.50,178.50 294.50,181.50">
        <request index="0"  response="0000000000000000" foes="1000010000100000" cont="0"/>
        <request index="1"  response="0100000001000000" foes="0111110001100000" cont="0"/>
        <request index="2"  response="0100001101000000" foes="0110001111100000" cont="1"/>
        <request index="3"  response="0100001000010000" foes="0100001000010000" cont="1"/>
        <request index="4"  response="0000001000000000" foes="0100001000001000" cont="0"/>
        <request index="5"  response="0000011000000111" foes="1100011000000111" cont="0"/>
        <request index="6"  response="0011011000000110" foes="0011111000000110" cont="1"/>
        <request index="7"  response="0010000100000100" foes="0010000100000100" cont="1"/>
        <request index="8"  response="0000000000000000" foes="0010000010000100" cont="0"/>
        <request index="9"  response="0100000001000000" foes="0110000001111100" cont="0"/>
        <request index="10" response="0100000001000011" foes="1110000001100011" cont="1"/>
        <request index="11" response="0001000001000010" foes="0001000001000010" cont="1"/>
        <request index="12" response="0000000000000010" foes="0000100001000010" cont="0"/>
        <request index="13" response="0000011100000110" foes="0000011111000110" cont="0"/>
        <request index="14" response="0000011000110110" foes="0000011000111110" cont="1"/>
        <request index="15" response="0000010000100001" foes="0000010000100001" cont="1"/>
    </junction>
    <junction id="P2" type="priority" x="600.00" y="180.00" incLanes="E1_P1_P2_0" intLanes=":P2_0_0" shape="600.00,180.00 600.00,178.50 600.00,180.00">
        <request index="0" response="0" foes="0" cont="0"/>
    </junction>
    <junction id="P3" type="priority" x="0.00" y="360.00" incLanes="E2_P0_P3_0" intLanes=":P3_0_0" shape="0.00,360.00 1.50,360.00 0.00,360.00">
        <request index="0" response="0" foes="0" cont="0"/>
    </junction>
    <junction id="P4" type="priority" x="0.00" y="0.00" incLanes="E3_P0_P4_0" intLanes=":P4_0_0" shape="0.00,0.00 -1.50,0.00 0.00,0.00">
        <request index="0" response="0" foes="0" cont="0"/>
    </junction>
    <junction id="P5" type="priority" x="300.00" y="360.00" incLanes="E5_P1_P5_0 E4_P0_P5_0" intLanes=":P5_0_0 :P5_1_0" shape="301.50,358.50 298.50,358.50 298.50,361.50">
        <request index="0" response="00" foes="00" cont="0"/>
        <request index="1" response="00" foes="00" cont="0"/>
    </junction>
    <junction id="P6" type="priority" x="300.00" y="0.00" incLanes="E6_P1_P6_0" intLanes=":P6_0_0" shape="300.00,0.00 298.50,0.00 300.00,0.00">
        <request index="0" response="0" foes="0" cont="0"/>
    </junction>

    <junction id=":P0_16_0" type="internal" x="0.00" y="184.75" incLanes=":P0_3_0 E0_P1_P0_0 E3_P4_P0_0 E4_P5_P0_0" intLanes=":P0_6_0 :P0_9_0 :P0_14_0"/>
    <junction id=":P0_17_0" type="internal" x="0.00" y="184.75" incLanes=":P0_7_0 E0_P1_P0_0 E2_P3_P0_0 E3_P4_P0_0" intLanes=":P0_2_0 :P0_8_0 :P0_13_0"/>
    <junction id=":P0_18_0" type="internal" x="4.75" y="180.00" incLanes=":P0_11_0 E2_P3_P0_0 E3_P4_P0_0 E4_P5_P0_0" intLanes=":P0_1_0 :P0_5_0 :P0_12_0"/>
    <junction id=":P0_19_0" type="internal" x="-0.57" y="174.77" incLanes=":P0_15_0 E0_P1_P0_0 E2_P3_P0_0 E4_P5_P0_0" intLanes=":P0_0_0 :P0_4_0 :P0_10_0"/>
    <junction id=":P1_16_0" type="internal" x="300.64" y="181.09" incLanes=":P1_2_0 E6_P6_P1_0" intLanes=":P1_5_0 :P1_6_0 :P1_7_0 :P1_8_0 :P1_9_0 :P1_13_0 :P1_14_0"/>
    <junction id=":P1_17_0" type="internal" x="300.57" y="185.23" incLanes=":P1_3_0 E0_P0_P1_0 E1_P2_P1_0 E6_P6_P1_0" intLanes=":P1_4_0 :P1_9_0 :P1_14_0"/>
    <junction id=":P1_18_0" type="internal" x="301.09" y="179.36" incLanes=":P1_6_0 E0_P0_P1_0" intLanes=":P1_1_0 :P1_2_0 :P1_9_0 :P1_10_0 :P1_11_0 :P1_12_0 :P1_13_0"/>
    <junction id=":P1_19_0" type="internal" x="305.23" y="179.43" incLanes=":P1_7_0 E0_P0_P1_0 E5_P5_P1_0 E6_P6_P1_0" intLanes=":P1_2_0 :P1_8_0 :P1_13_0"/>
    <junction id=":P1_20_0" type="internal" x="299.36" y="178.91" incLanes=":P1_10_0 E5_P5_P1_0" intLanes=":P1_0_0 :P1_1_0 :P1_5_0 :P1_6_0 :P1_13_0 :P1_14_0 :P1_15_0"/>
    <junction id=":P1_21_0" type="internal" x="299.43" y="174.77" incLanes=":P1_11_0 E0_P0_P1_0 E1_P2_P1_0 E5_P5_P1_0" intLanes=":P1_1_0 :P1_6_0 :P1_12_0"/>
    <junction id=":P1_22_0" type="internal" x="298.91" y="180.64" incLanes=":P1_14_0 E1_P2_P1_0" intLanes=":P1_1_0 :P1_2_0 :P1_3_0 :P1_4_0 :P1_5_0 :P1_9_0 :P1_10_0"/>
    <junction id=":P1_23_0" type="internal" x="294.77" y="180.57" incLanes=":P1_15_0 E1_P2_P1_0 E5_P5_P1_0 E6_P6_P1_0" intLanes=":P1_0_0 :P1_5_0 :P1_10_0"/>

    <connection from="E0_P0_P1" to="E6_P1_P6" fromLane="0" toLane="0" via=":P1_12_0" tl="P1" linkIndex="12" dir="r" state="o"/>
    <connection from="E0_P0_P1" to="E1_P1_P2" fromLane="0" toLane="0" via=":P1_13_0" tl="P1" linkIndex="13" dir="s" state="o"/>
    <connection from="E0_P0_P1" to="E5_P1_P5" fromLane="0" toLane="0" via=":P1_14_0" tl="P1" linkIndex="14" dir="l" state="o"/>
    <connection from="E0_P0_P1" to="E0_P1_P0" fromLane="0" toLane="0" via=":P1_15_0" tl="P1" linkIndex="15" dir="t" state="o"/>
    <connection from="E0_P1_P0" to="E4_P0_P5" fromLane="0" toLane="0" via=":P0_8_0" tl="P0" linkIndex="8" dir="r" state="o"/>
    <connection from="E0_P1_P0" to="E2_P0_P3" fromLane="0" toLane="0" via=":P0_9_0" tl="P0" linkIndex="9" dir="R" state="o"/>
    <connection from="E0_P1_P0" to="E3_P0_P4" fromLane="0" toLane="0" via=":P0_10_0" tl="P0" linkIndex="10" dir="l" state="o"/>
    <connection from="E0_P1_P0" to="E0_P0_P1" fromLane="0" toLane="0" via=":P0_11_0" tl="P0" linkIndex="11" dir="t" state="o"/>
    <connection from="E1_P1_P2" to="E1_P2_P1" fromLane="0" toLane="0" via=":P2_0_0" dir="t" state="M"/>
    <connection from="E1_P2_P1" to="E5_P1_P5" fromLane="0" toLane="0" via=":P1_4_0" tl="P1" linkIndex="4" dir="r" state="o"/>
    <connection from="E1_P2_P1" to="E0_P1_P0" fromLane="0" toLane="0" via=":P1_5_0" tl="P1" linkIndex="5" dir="s" state="o"/>
    <connection from="E1_P2_P1" to="E6_P1_P6" fromLane="0" toLane="0" via=":P1_6_0" tl="P1" linkIndex="6" dir="l" state="o"/>
    <connection from="E1_P2_P1" to="E1_P1_P2" fromLane="0" toLane="0" via=":P1_7_0" tl="P1" linkIndex="7" dir="t" state="o"/>
    <connection from="E2_P0_P3" to="E2_P3_P0" fromLane="0" toLane="0" via=":P3_0_0" dir="t" state="M"/>
    <connection from="E2_P3_P0" to="E3_P0_P4" fromLane="0" toLane="0" via=":P0_0_0" tl="P0" linkIndex="0" dir="s" state="O"/>
    <connection from="E2_P3_P0" to="E0_P0_P1" fromLane="0" toLane="0" via=":P0_1_0" tl="P0" linkIndex="1" dir="L" state="o"/>
    <connection from="E2_P3_P0" to="E4_P0_P5" fromLane="0" toLane="0" via=":P0_2_0" tl="P0" linkIndex="2" dir="l" state="o"/>
    <connection from="E2_P3_P0" to="E2_P0_P3" fromLane="0" toLane="0" via=":P0_3_0" tl="P0" linkIndex="3" dir="t" state="o"/>
    <connection from="E3_P0_P4" to="E3_P4_P0" fromLane="0" toLane="0" via=":P4_0_0" dir="t" state="M"/>
    <connection from="E3_P4_P0" to="E0_P0_P1" fromLane="0" toLane="0" via=":P0_12_0" tl="P0" linkIndex="12" dir="r" state="O"/>
    <connection from="E3_P4_P0" to="E4_P0_P5" fromLane="0" toLane="0" via=":P0_13_0" tl="P0" linkIndex="13" dir="s" state="O"/>
    <connection from="E3_P4_P0" to="E2_P0_P3" fromLane="0" toLane="0" via=":P0_14_0" tl="P0" linkIndex="14" dir="s" state="O"/>
    <connection from="E3_P4_P0" to="E3_P0_P4" fromLane="0" toLane="0" via=":P0_15_0" tl="P0" linkIndex="15" dir="t" state="o"/>
    <connection from="E4_P0_P5" to="E5_P5_P1" fromLane="0" toLane="0" via=":P5_1_0" dir="r" state="M"/>
    <connection from="E4_P5_P0" to="E3_P0_P4" fromLane="0" toLane="0" via=":P0_4_0" tl="P0" linkIndex="4" dir="s" state="o"/>
    <connection from="E4_P5_P0" to="E0_P0_P1" fromLane="0" toLane="0" via=":P0_5_0" tl="P0" linkIndex="5" dir="l" state="o"/>
    <connection from="E4_P5_P0" to="E2_P0_P3" fromLane="0" toLane="0" via=":P0_6_0" tl="P0" linkIndex="6" dir="l" state="o"/>
    <connection from="E4_P5_P0" to="E4_P0_P5" fromLane="0" toLane="0" via=":P0_7_0" tl="P0" linkIndex="7" dir="t" state="o"/>
    <connection from="E5_P1_P5" to="E4_P5_P0" fromLane="0" toLane="0" via=":P5_0_0" dir="l" state="M"/>
    <connection from="E5_P5_P1" to="E0_P1_P0" fromLane="0" toLane="0" via=":P1_0_0" tl="P1" linkIndex="0" dir="r" state="O"/>
    <connection from="E5_P5_P1" to="E6_P1_P6" fromLane="0" toLane="0" via=":P1_1_0" tl="P1" linkIndex="1" dir="s" state="O"/>
    <connection from="E5_P5_P1" to="E1_P1_P2" fromLane="0" toLane="0" via=":P1_2_0" tl="P1" linkIndex="2" dir="l" state="o"/>
    <connection from="E5_P5_P1" to="E5_P1_P5" fromLane="0" toLane="0" via=":P1_3_0" tl="P1" linkIndex="3" dir="t" state="o"/>
    <connection from="E6_P1_P6" to="E6_P6_P1" fromLane="0" toLane="0" via=":P6_0_0" dir="t" state="M"/>
    <connection from="E6_P6_P1" to="E1_P1_P2" fromLane="0" toLane="0" via=":P1_8_0" tl="P1" linkIndex="8" dir="r" state="O"/>
    <connection from="E6_P6_P1" to="E5_P1_P5" fromLane="0" toLane="0" via=":P1_9_0" tl="P1" linkIndex="9" dir="s" state="O"/>
    <connection from="E6_P6_P1" to="E0_P1_P0" fromLane="0" toLane="0" via=":P1_10_0" tl="P1" linkIndex="10" dir="l" state="o"/>
    <connection from="E6_P6_P1" to="E6_P1_P6" fromLane="0" toLane="0" via=":P1_11_0" tl="P1" linkIndex="11" dir="t" state="o"/>

    <connection from=":P0_0" to="E3_P0_P4" fromLane="0" toLane="0" dir="s" state="M"/>
    <connection from=":P0_1" to="E0_P0_P1" fromLane="0" toLane="0" dir="L" state="M"/>
    <connection from=":P0_2" to="E4_P0_P5" fromLane="0" toLane="0" dir="l" state="M"/>
    <connection from=":P0_3" to="E2_P0_P3" fromLane="0" toLane="0" via=":P0_16_0" dir="t" state="m"/>
    <connection from=":P0_16" to="E2_P0_P3" fromLane="0" toLane="0" dir="t" state="M"/>
    <connection from=":P0_4" to="E3_P0_P4" fromLane="0" toLane="0" dir="s" state="M"/>
    <connection from=":P0_5" to="E0_P0_P1" fromLane="0" toLane="0" dir="l" state="M"/>
    <connection from=":P0_6" to="E2_P0_P3" fromLane="0" toLane="0" dir="l" state="M"/>
    <connection from=":P0_7" to="E4_P0_P5" fromLane="0" toLane="0" via=":P0_17_0" dir="t" state="m"/>
    <connection from=":P0_17" to="E4_P0_P5" fromLane="0" toLane="0" dir="t" state="M"/>
    <connection from=":P0_8" to="E4_P0_P5" fromLane="0" toLane="0" dir="r" state="M"/>
    <connection from=":P0_9" to="E2_P0_P3" fromLane="0" toLane="0" dir="R" state="M"/>
    <connection from=":P0_10" to="E3_P0_P4" fromLane="0" toLane="0" dir="l" state="M"/>
    <connection from=":P0_11" to="E0_P0_P1" fromLane="0" toLane="0" via=":P0_18_0" dir="t" state="m"/>
    <connection from=":P0_18" to="E0_P0_P1" fromLane="0" toLane="0" dir="t" state="M"/>
    <connection from=":P0_12" to="E0_P0_P1" fromLane="0" toLane="0" dir="r" state="M"/>
    <connection from=":P0_13" to="E4_P0_P5" fromLane="0" toLane="0" dir="s" state="M"/>
    <connection from=":P0_14" to="E2_P0_P3" fromLane="0" toLane="0" dir="s" state="M"/>
    <connection from=":P0_15" to="E3_P0_P4" fromLane="0" toLane="0" via=":P0_19_0" dir="t" state="m"/>
    <connection from=":P0_19" to="E3_P0_P4" fromLane="0" toLane="0" dir="t" state="M"/>
    <connection from=":P1_0" to="E0_P1_P0" fromLane="0" toLane="0" dir="r" state="M"/>
    <connection from=":P1_1" to="E6_P1_P6" fromLane="0" toLane="0" dir="s" state="M"/>
    <connection from=":P1_2" to="E1_P1_P2" fromLane="0" toLane="0" via=":P1_16_0" dir="l" state="m"/>
    <connection from=":P1_16" to="E1_P1_P2" fromLane="0" toLane="0" dir="l" state="M"/>
    <connection from=":P1_3" to="E5_P1_P5" fromLane="0" toLane="0" via=":P1_17_0" dir="t" state="m"/>
    <connection from=":P1_17" to="E5_P1_P5" fromLane="0" toLane="0" dir="t" state="M"/>
    <connection from=":P1_4" to="E5_P1_P5" fromLane="0" toLane="0" dir="r" state="M"/>
    <connection from=":P1_5" to="E0_P1_P0" fromLane="0" toLane="0" dir="s" state="M"/>
    <connection from=":P1_6" to="E6_P1_P6" fromLane="0" toLane="0" via=":P1_18_0" dir="l" state="m"/>
    <connection from=":P1_18" to="E6_P1_P6" fromLane="0" toLane="0" dir="l" state="M"/>
    <connection from=":P1_7" to="E1_P1_P2" fromLane="0" toLane="0" via=":P1_19_0" dir="t" state="m"/>
    <connection from=":P1_19" to="E1_P1_P2" fromLane="0" toLane="0" dir="t" state="M"/>
    <connection from=":P1_8" to="E1_P1_P2" fromLane="0" toLane="0" dir="r" state="M"/>
    <connection from=":P1_9" to="E5_P1_P5" fromLane="0" toLane="0" dir="s" state="M"/>
    <connection from=":P1_10" to="E0_P1_P0" fromLane="0" toLane="0" via=":P1_20_0" dir="l" state="m"/>
    <connection from=":P1_20" to="E0_P1_P0" fromLane="0" toLane="0" dir="l" state="M"/>
    <connection from=":P1_11" to="E6_P1_P6" fromLane="0" toLane="0" via=":P1_21_0" dir="t" state="m"/>
    <connection from=":P1_21" to="E6_P1_P6" fromLane="0" toLane="0" dir="t" state="M"/>
    <connection from=":P1_12" to="E6_P1_P6" fromLane="0" toLane="0" dir="r" state="M"/>
    <connection from=":P1_13" to="E1_P1_P2" fromLane="0" toLane="0" dir="s" state="M"/>
    <connection from=":P1_14" to="E5_P1_P5" fromLane="0" toLane="0" via=":P1_22_0" dir="l" state="m"/>
    <connection from=":P1_22" to="E5_P1_P5" fromLane="0" toLane="0" dir="l" state="M"/>
    <connection from=":P1_15" to="E0_P1_P0" fromLane="0" toLane="0" via=":P1_23_0" dir="t" state="m"/>
    <connection from=":P1_23" to="E0_P1_P0" fromLane="0" toLane="0" dir="t" state="M"/>
    <connection from=":P2_0" to="E1_P2_P1" fromLane="0" toLane="0" dir="t" state="M"/>
    <connection from=":P3_0" to="E2_P3_P0" fromLane="0" toLane="0" dir="t" state="M"/>