<edges>
    <edge id="E2_P0_P3" from="P0" to="P3" numLanes="1" speed="13.9" shape="120.1,444.16 305.1,445.44 370.1,424.53 500.07,419.51 565.07,411.15 695.03,411.85 760.03,418.41 825.0,425.47 890.0,435.56"/>
    <edge id="E2_P3_P0" from="P3" to="P0" numLanes="1" speed="13.9" shape="890.0,435.56 825.0,425.47 760.03,418.41 695.03,411.85 565.07,411.15 500.07,419.51 370.1,424.53 305.1,445.44 120.1,444.16"/>
    <edge id="E3_P4_P0" from="P4" to="P0" numLanes="1" speed="13.9" shape="70.0,570.0 75.59,511.18 120.1,444.16"/>
    <edge id="E3_P0_P4" from="P0" to="P4" numLanes="1" speed="13.9" shape="120.1,444.16 75.59,511.18 70.0,570.0"/>
    <edge id="E4_P0_P5" from="P0" to="P5" numLanes="1" speed="13.9" shape="120.1,444.16 108.48,393.54 111.35,334.7 104.91,275.89 108.37,217.06 102.59,158.24 99.13,99.41 101.12,70.0"/>
    <edge id="E4_P5_P0" from="P5" to="P0" numLanes="1" speed="13.9" shape="101.12,70.0 99.13,99.41 102.59,158.24 108.37,217.06 104.91,275.89 111.35,334.7 108.48,393.54 120.1,444.16"/>
    <edge id="E5_P6_P0" from="P6" to="P0" numLanes="1" speed="13.9" shape="197.39,570.0 201.25,511.18 120.1,444.16"/>
    <edge id="E5_P0_P6" from="P0" to="P6" numLanes="1" speed="13.9" shape="120.1,444.16 201.25,511.18 197.39,570.0"/>
    <edge id="E6_P0_P7" from="P0" to="P7" numLanes="1" speed="13.9" shape="120.1,444.16 204.38,393.54 207.58,334.7 169.25,305.3 186.39,246.46 187.02,187.65 176.9,128.82 180.98,70.0"/>
    <edge id="E6_P7_P0" from="P7" to="P0" numLanes="1" speed="13.9" shape="180.98,70.0 176.9,128.82 187.02,187.65 186.39,246.46 169.25,305.3 207.58,334.7 204.38,393.54 120.1,444.16"/>
</edges>