<?xml version="1.0" encoding="UTF-8"?>

<!-- generated on 2026-04-12T12:19:05.112904+05:30 by Eclipse SUMO netconvert 1.26.0
<netconvertConfiguration xmlns:xsi="http://www.w3.org/2001/XMLSchema-instance" xsi:noNamespaceSchemaLocation="http://sumo.dlr.de/xsd/netconvertConfiguration.xsd">

    <input>
        <node-files value="C:\Users\santhosh\OneDrive\Desktop\trafiic pro\web_runs\20260412_121904_726138\area.nod.xml"/>
        <edge-files value="C:\Users\santhosh\OneDrive\Desktop\trafiic pro\web_runs\20260412_121904_726138\area.edg.xml"/>
    </input>

    <output>
        <output-file value="C:\Users\santhosh\OneDrive\Desktop\trafiic pro\web_runs\20260412_121904_726138\area.net.xml"/>
    </output>

    <building_defaults>
        <default.lanewidth value="1.5"/>
    </building_defaults>

    <junctions>
        <junctions.corner-detail value="0"/>
    </junctions>

</netconvertConfiguration>
-->

<net version="1.20" limitTurnSpeed="5.50" xmlns:xsi="http://www.w3.org/2001/XMLSchema-instance" xsi:noNamespaceSchemaLocation="http://sumo.dlr.de/xsd/net_file.xsd">

    <location netOffset="-70.00,-70.00" convBoundary="0.00,0.00,820.00,500.00" origBoundary="70.00,70.00,890.00,570.00" projParameter="!"/>

    <edge id=":P0_0" function="internal">
        <lane id=":P0_0_0" index="0" speed="6.30" length="9.66" width="1.50" shape="55.96,379.97 53.30,378.17 51.02,377.45 49.12,377.83 47.59,379.29"/>
    </edge>
    <edge id=":P0_1" function="internal">
        <lane id=":P0_1_0" index="0" speed="13.90" length="14.28" width="1.50" shape="55.96,379.97 53.25,377.51 50.96,374.83 49.18,371.83 48.01,368.41"/>
    </edge>
    <edge id=":P0_2" function="internal">
        <lane id=":P0_2_0" index="0" speed="7.06" length="5.78" width="1.50" shape="55.96,379.97 53.39,377.05 53.02,375.20"/>
    </edge>
    <edge id=":P0_3" function="internal">
        <lane id=":P0_3_0" index="0" speed="5.88" length="5.61" width="1.50" shape="55.96,379.97 53.19,377.10 52.92,375.50"/>
    </edge>
    <edge id=":P0_4" function="internal">
        <lane id=":P0_4_0" index="0" speed="2.50" length="1.93" width="1.50" shape="55.96,379.97 55.76,379.32 55.86,378.92 56.24,378.75 56.65,378.79"/>
    </edge>
    <edge id=":P0_25" function="internal">
        <lane id=":P0_25_0" index="0" speed="7.06" length="8.54" width="1.50" shape="53.02,375.20 52.82,374.20 54.27,371.42 57.72,368.71"/>
    </edge>
    <edge id=":P0_26" function="internal">
        <lane id=":P0_26_0" index="0" speed="5.88" length="7.39" width="1.50" shape="52.92,375.50 52.85,375.06 54.93,373.85 59.44,373.47"/>
    </edge>
    <edge id=":P0_27" function="internal">
        <lane id=":P0_27_0" index="0" speed="2.50" length="0.26" width="1.50" shape="56.65,378.79 56.91,378.81"/>
    </edge>
    <edge id=":P0_5" function="internal">
        <lane id=":P0_5_0" index="0" speed="4.69" length="7.98" width="1.50" shape="59.43,374.97 56.56,375.20 55.19,375.91 55.30,377.12 56.91,378.81"/>
    </edge>
    <edge id=":P0_6" function="internal">
        <lane id=":P0_6_0" index="0" speed="10.04" length="13.10" width="1.50" shape="59.43,374.97 55.34,375.22 52.01,376.02 49.42,377.38 47.59,379.29"/>
    </edge>
    <edge id=":P0_7" function="internal">
        <lane id=":P0_7_0" index="0" speed="8.66" length="14.27" width="1.50" shape="59.43,374.97 55.00,374.54 51.61,373.30 49.28,371.26 48.01,368.41"/>
    </edge>
    <edge id=":P0_8" function="internal">
        <lane id=":P0_8_0" index="0" speed="5.84" length="13.61" width="1.50" shape="59.43,374.97 54.82,374.55 53.00,373.37 53.97,371.42 57.72,368.71"/>
    </edge>
    <edge id=":P0_9" function="internal">
        <lane id=":P0_9_0" index="0" speed="2.50" length="2.01" width="1.50" shape="59.43,374.97 58.87,374.60 58.69,374.22 58.88,373.85 59.29,373.57"/>
    </edge>
    <edge id=":P0_28" function="internal">
        <lane id=":P0_28_0" index="0" speed="2.50" length="0.18" width="1.50" shape="59.29,373.57 59.44,373.47"/>
    </edge>
    <edge id=":P0_10" function="internal">
        <lane id=":P0_10_0" index="0" speed="4.46" length="7.56" width="1.50" shape="58.49,369.99 56.41,371.50 55.87,372.58 56.88,373.24 59.44,373.47"/>
    </edge>
    <edge id=":P0_11" function="internal">
        <lane id=":P0_11_0" index="0" speed="6.29" length="11.24" width="1.50" shape="58.49,369.99 55.73,372.14 54.55,374.33 54.94,376.55 56.91,378.81"/>
    </edge>
    <edge id=":P0_12" function="internal">
        <lane id=":P0_12_0" index="0" speed="13.90" length="14.45" width="1.50" shape="58.49,369.99 55.37,371.95 52.47,374.05 49.86,376.45 47.59,379.29"/>
    </edge>
    <edge id=":P0_13" function="internal">
        <lane id=":P0_13_0" index="0" speed="6.77" length="6.25" width="1.50" shape="58.49,369.99 54.50,371.90 52.68,372.12"/>
    </edge>
    <edge id=":P0_14" function="internal">
        <lane id=":P0_14_0" index="0" speed="2.50" length="1.83" width="1.50" shape="58.49,369.99 57.82,369.96 57.46,369.74 57.43,369.32 57.56,369.04"/>
    </edge>
    <edge id=":P0_29" function="internal">
        <lane id=":P0_29_0" index="0" speed="6.77" length="6.69" width="1.50" shape="52.68,372.12 51.43,372.27 49.26,371.11 48.01,368.41"/>
    </edge>
    <edge id=":P0_30" function="internal">
        <lane id=":P0_30_0" index="0" speed="2.50" length="0.36" width="1.50" shape="57.56,369.04 57.72,368.71"/>
    </edge>
    <edge id=":P0_15" function="internal">
        <lane id=":P0_15_0" index="0" speed="5.98" length="9.96" width="1.50" shape="49.47,368.08 50.41,369.96 52.10,370.69 54.53,370.27 57.72,368.71"/>
    </edge>
    <edge id=":P0_16" function="internal">
        <lane id=":P0_16_0" index="0" speed="8.04" length="12.26" width="1.50" shape="49.47,368.08 50.56,370.42 52.58,372.10 55.54,373.11 59.44,373.47"/>
    </edge>
    <edge id=":P0_17" function="internal">
        <lane id=":P0_17_0" index="0" speed="13.73" length="13.33" width="1.50" shape="49.47,368.08 50.57,371.36 52.17,374.08 54.28,376.48 56.91,378.81"/>
    </edge>
    <edge id=":P0_18" function="internal">
        <lane id=":P0_18_0" index="0" speed="10.91" length="9.12" width="1.50" shape="49.47,368.08 49.89,371.12 49.72,374.00 48.95,376.72 48.79,377.02"/>
    </edge>
    <edge id=":P0_19" function="internal">
        <lane id=":P0_19_0" index="0" speed="2.50" length="1.69" width="1.50" shape="49.47,368.08 49.23,368.71 48.91,368.98 48.50,368.88 48.38,368.76"/>
    </edge>
    <edge id=":P0_31" function="internal">
        <lane id=":P0_31_0" index="0" speed="10.91" length="2.57" width="1.50" shape="48.79,377.02 47.59,379.29"/>
    </edge>
    <edge id=":P0_32" function="internal">
        <lane id=":P0_32_0" index="0" speed="2.50" length="0.50" width="1.50" shape="48.38,368.76 48.01,368.41"/>
    </edge>
    <edge id=":P0_20" function="internal">
        <lane id=":P0_20_0" index="0" speed="10.33" length="10.47" width="1.50" shape="46.34,378.46 47.55,376.17 48.24,373.73 48.39,371.14 48.01,368.41"/>
    </edge>
    <edge id=":P0_21" function="internal">
        <lane id=":P0_21_0" index="0" speed="13.90" length="15.10" width="1.50" shape="46.34,378.46 48.68,375.54 51.46,372.99 54.52,370.73 57.72,368.71"/>
    </edge>
    <edge id=":P0_22" function="internal">
        <lane id=":P0_22_0" index="0" speed="10.58" length="6.75" width="1.50" shape="46.34,378.46 48.42,376.26 51.30,374.69 51.72,374.58"/>
    </edge>
    <edge id=":P0_23" function="internal">
        <lane id=":P0_23_0" index="0" speed="7.05" length="4.74" width="1.50" shape="46.34,378.46 48.35,376.46 50.19,375.99"/>
    </edge>
    <edge id=":P0_24" function="internal">
        <lane id=":P0_24_0" index="0" speed="2.50" length="2.01" width="1.50" shape="46.34,378.46 46.96,378.20 47.38,378.25 47.59,378.62 47.59,379.12"/>
    </edge>
    <edge id=":P0_33" function="internal">
        <lane id=":P0_33_0" index="0" speed="10.58" length="7.83" width="1.50" shape="51.72,374.58 54.97,373.76 59.44,373.47"/>
    </edge>
    <edge id=":P0_34" function="internal">
        <lane id=":P0_34_0" index="0" speed="7.05" length="7.51" width="1.50" shape="50.19,375.99 50.78,375.85 53.64,376.63 56.91,378.81"/>
    </edge>
    <edge id=":P0_35" function="internal">
        <lane id=":P0_35_0" index="0" speed="2.50" length="0.18" width="1.50" shape="47.59,379.12 47.59,379.29"/>
    </edge>
    <edge id=":P3_0" function="internal">
        <lane id=":P3_0_0" index="0" speed="2.50" length="2.19" width="1.50" shape="820.12,364.82 820.61,365.28 820.74,365.68 820.50,366.02 819.88,366.30"/>
    </edge>
    <edge id=":P4_0" function="internal">
        <lane id=":P4_0_0" index="0" speed="2.50" length="2.19" width="1.50" shape="0.75,500.07 0.32,500.60 -0.07,500.75 -0.43,500.52 -0.75,499.93"/>
    </edge>
    <edge id=":P5_0" function="internal">
        <lane id=":P5_0_0" index="0" speed="2.50" length="2.19" width="1.50" shape="30.37,-0.05 30.78,-0.59 31.17,-0.75 31.53,-0.54 31.87,0.05"/>
    </edge>
    <edge id=":P6_0" function="internal">
        <lane id=":P6_0_0" index="0" speed="2.50" length="2.19" width="1.50" shape="128.14,500.05 127.73,500.59 127.34,500.75 126.98,500.54 126.64,499.95"/>
    </edge>
    <edge id=":P7_0" function="internal">
        <lane id=":P7_0_0" index="0" speed="2.50" length="2.19" width="1.50" shape="110.23,-0.05 110.64,-0.59 111.03,-0.75 111.39,-0.54 111.73,0.05"/>
    </edge>

    <edge id="E2_P0_P3" from="P0" to="P3" priority="-1" shape="50.10,374.16 235.10,375.44 300.10,354.53 430.07,349.51 495.07,341.15 625.03,341.85 690.03,348.41 755.00,355.47 820.00,365.56">
        <lane id="E2_P0_P3_0" index="0" speed="13.90" length="766.08" width="1.50" shape="59.44,373.47 234.98,374.69 299.97,353.78 430.01,348.76 495.02,340.40 625.07,341.10 690.11,347.66 755.10,354.73 820.12,364.82"/>
    </edge>
    <edge id="E2_P3_P0" from="P3" to="P0" priority="-1" shape="820.00,365.56 755.00,355.47 690.03,348.41 625.03,341.85 495.07,341.15 430.07,349.51 300.10,354.53 235.10,375.44 50.10,374.16">
        <lane id="E2_P3_P0_0" index="0" speed="13.90" length="765.86" width="1.50" shape="819.88,366.30 754.90,356.21 689.95,349.16 624.99,342.60 495.12,341.90 430.13,350.26 300.23,355.28 235.22,376.19 59.43,374.97"/>
    </edge>
    <edge id="E3_P0_P4" from="P0" to="P4" priority="-1" shape="50.10,374.16 5.59,441.18 0.00,500.00">
        <lane id="E3_P0_P4_0" index="0" speed="13.90" length="133.50" width="1.50" shape="47.59,379.29 6.32,441.44 0.75,500.07"/>
    </edge>
    <edge id="E3_P4_P0" from="P4" to="P0" priority="-1" shape="0.00,500.00 5.59,441.18 50.10,374.16">
        <lane id="E3_P4_P0_0" index="0" speed="13.90" length="134.25" width="1.50" shape="-0.75,499.93 4.86,440.92 46.34,378.46"/>
    </edge>
    <edge id="E4_P0_P5" from="P0" to="P5" priority="-1" shape="50.10,374.16 38.48,323.54 41.35,264.70 34.91,205.89 38.37,147.06 32.59,88.24 29.13,29.41 31.12,0.00">
        <lane id="E4_P0_P5_0" index="0" speed="13.90" length="370.61" width="1.50" shape="48.01,368.41 37.73,323.61 40.60,264.72 34.16,205.91 37.62,147.07 31.84,88.30 28.38,29.41 30.37,-0.05"/>
    </edge>
    <edge id="E4_P5_P0" from="P5" to="P0" priority="-1" shape="31.12,0.00 29.13,29.41 32.59,88.24 38.37,147.06 34.91,205.89 41.35,264.70 38.48,323.54 50.10,374.16">
        <lane id="E4_P5_P0_0" index="0" speed="13.90" length="370.16" width="1.50" shape="31.87,0.05 29.88,29.41 33.34,88.18 39.12,147.05 35.66,205.87 42.10,264.68 39.23,323.47 49.47,368.08"/>
    </edge>
    <edge id="E5_P0_P6" from="P0" to="P6" priority="-1" shape="50.10,374.16 131.25,441.18 127.39,500.00">
        <lane id="E5_P0_P6_0" index="0" speed="13.90" length="156.74" width="1.50" shape="56.91,378.81 132.02,440.85 128.14,500.05"/>
    </edge>
    <edge id="E5_P6_P0" from="P6" to="P0" priority="-1" shape="127.39,500.00 131.25,441.18 50.10,374.16">
        <lane id="E5_P6_P0_0" index="0" speed="13.90" length="155.21" width="1.50" shape="126.64,499.95 130.48,441.51 55.96,379.97"/>
    </edge>
    <edge id="E6_P0_P7" from="P0" to="P7" priority="-1" shape="50.10,374.16 134.38,323.54 137.58,264.70 99.25,235.30 116.39,176.46 117.02,117.65 106.90,58.82 110.98,0.00">
        <lane id="E6_P0_P7_0" index="0" speed="13.90" length="434.24" width="1.50" shape="57.72,368.71 133.65,323.10 136.81,265.05 98.39,235.58 115.64,176.35 116.27,117.71 106.15,58.86 110.23,-0.05"/>
    </edge>
    <edge id="E6_P7_P0" from="P7" to="P0" priority="-1" shape="110.98,0.00 106.90,58.82 117.02,117.65 116.39,176.46 99.25,235.30 137.58,264.70 134.38,323.54 50.10,374.16">
        <lane id="E6_P7_P0_0" index="0" speed="13.90" length="435.68" width="1.50" shape="111.73,0.05 107.65,58.78 117.77,117.59 117.14,176.57 100.11,235.02 138.35,264.35 135.11,323.98 58.49,369.99"/>
    </edge>

    <tlLogic id="P0" type="static" programID="0" offset="0">
        <phase duration="27" state="rrrrrrrrrrGGGggrrrrrGGggg"/>
        <phase duration="3"  state="rrrrrrrrrryyyyyrrrrryyyyy"/>
        <phase duration="27" state="GGgggrrrrrrrrrrGGGggrrrrr"/>
        <phase duration="3"  state="yyyyyrrrrrrrrrryyyyyrrrrr"/>
        <phase duration="27" state="rrrrrGGGGgGrrrrrrrrrrrrrr"/>
        <phase duration="3"  state="rrrrryyyyyGrrrrrrrrrrrrrr"/>
    </tlLogic>

    <junction id="P0" type="traffic_light" x="50.10" y="374.16" incLanes="E5_P6_P0_0 E2_P3_P0_0 E6_P7_P0_0 E4_P5_P0_0 E3_P4_P0_0" intLanes=":P0_0_0 :P0_1_0 :P0_25_0 :P0_26_0 :P0_27_0 :P0_5_0 :P0_6_0 :P0_7_0 :P0_8_0 :P0_28_0 :P0_10_0 :P0_11_0 :P0_12_0 :P0_29_0 :P0_30_0 :P0_15_0 :P0_16_0 :P0_17_0 :P0_31_0 :P0_32_0 :P0_20_0 :P0_21_0 :P0_33_0 :P0_34_0 :P0_35_0" shape="55.48,380.55 57.39,378.24 59.43,375.72 59.45,372.72 58.88,370.64 57.33,368.07 50.20,367.91 47.28,368.58 45.72,378.05 48.22,379.71">
        <request index="0"  response="0000000000001000000000000" foes="1000001000001000001000000" cont="0"/>
        <request index="1"  response="0111100000011000000000000" foes="0111111000011000011000000" cont="0"/>
        <request index="2"  response="0111000111011000000000000" foes="0111000111111000111000000" cont="1"/>
        <request index="3"  response="0110000110000110000000000" foes="0110000110000111111000000" cont="1"/>
        <request index="4"  response="0100000100000100000100000" foes="0100000100000100000100000" cont="1"/>
        <request index="5"  response="0100000100000100000000000" foes="0100000100000100000010000" cont="0"/>
        <request index="6"  response="0100001100001100000001111" foes="1100001100001100000001111" cont="0"/>
        <request index="7"  response="0011101100011100000001110" foes="0011111100011100000001110" cont="0"/>
        <request index="8"  response="0011000011011100000001100" foes="0011000011111100000001100" cont="0"/>
        <request index="9"  response="0010000010000010000001000" foes="0010000010000010000001000" cont="1"/>
        <request index="10" response="0000000000000000000001000" foes="0010000010000001000001000" cont="0"/>
        <request index="11" response="0000000000000000000001000" foes="0110000110000000111111000" cont="0"/>
        <request index="12" response="0000001000000000000000100" foes="1110001110000000111000111" cont="0"/>
        <request index="13" response="0001101000000000000000100" foes="0001111110000000110000110" cont="1"/>
        <request index="14" response="0001000001000000100000100" foes="0001000001000000100000100" cont="1"/>
        <request index="15" response="0001000000000000000000000" foes="0001000000100000100000100" cont="0"/>
        <request index="16" response="0011000000011110000000000" foes="0011000000011111100001100" cont="0"/>
        <request index="17" response="0111000000011100000000000" foes="0111000000011100011111100" cont="0"/>
        <request index="18" response="0111000000011000011000011" foes="1111000000011000011000011" cont="1"/>
        <request index="19" response="0000100000010000010000010" foes="0000100000010000010000010" cont="1"/>
        <request index="20" response="0000000000000000000000000" foes="0000010000010000010000010" cont="0"/>
        <request index="21" response="0000001000000000000000100" foes="0000001111110000110000110" cont="0"/>
        <request index="22" response="0000001000001110000001100" foes="0000001110001111110001110" cont="1"/>
        <request index="23" response="0000001000001100000001100" foes="0000001100001100001111110" cont="1"/>
        <request index="24" response="0000001000001000001000001" foes="0000001000001000001000001" cont="1"/>
    </junction>
    <junction id="P3" type="priority" x="820.00" y="365.56" incLanes="E2_P0_P3_0" intLanes=":P3_0_0" shape="820.00,365.56 820.23,364.08 820.00,365.56">
        <request index="0" response="0" foes="0" cont="0"/>
    </junction>
    <junction id="P4" type="priority" x="0.00" y="500.00" incLanes="E3_P0_P4_0" intLanes=":P4_0_0" shape="0.00,500.00 1.49,500.14 0.00,500.00">
        <request index="0" response="0" foes="0" cont="0"/>
    </junction>
    <junction id="P5" type="priority" x="31.12" y="0.00" incLanes="E4_P0_P5_0" intLanes=":P5_0_0" shape="31.12,0.00 29.62,-0.10 31.12,0.00">
        <request index="0" response="0" foes="0" cont="0"/>
    </junction>
    <junction id="P6" type="priority" x="127.39" y="500.00" incLanes="E5_P0_P6_0" intLanes=":P6_0_0" shape="127.39,500.00 128.89,500.10 127.39,500.00">
        <request index="0" response="0" foes="0" cont="0"/>
    </junction>
    <junction id="P7" type="priority" x="110.98" y="0.00" incLanes="E6_P0_P7_0" intLanes=":P7_0_0" shape="110.98,-0.00 109.48,-0.10 110.98,0.00">
        <request index="0" response="0" foes="0" cont="0"/>
    </junction>

    <junction id=":P0_25_0" type="internal" x="53.02" y="375.20" incLanes=":P0_2_0 E4_P5_P0_0" intLanes=":P0_6_0 :P0_7_0 :P0_8_0 :P0_12_0 :P0_13_0 :P0_14_0 :P0_15_0 :P0_16_0 :P0_17_0 :P0_21_0 :P0_22_0 :P0_23_0"/>
    <junction id=":P0_26_0" type="internal" x="52.92" y="375.50" incLanes=":P0_3_0 E4_P5_P0_0" intLanes=":P0_6_0 :P0_7_0 :P0_8_0 :P0_9_0 :P0_10_0 :P0_11_0 :P0_16_0 :P0_17_0 :P0_22_0 :P0_23_0"/>
    <junction id=":P0_27_0" type="internal" x="56.65" y="378.79" incLanes=":P0_4_0 E2_P3_P0_0 E3_P4_P0_0 E4_P5_P0_0 E6_P7_P0_0" intLanes=":P0_5_0 :P0_11_0 :P0_17_0 :P0_23_0"/>
    <junction id=":P0_28_0" type="internal" x="59.29" y="373.57" incLanes=":P0_9_0 E3_P4_P0_0 E4_P5_P0_0 E5_P6_P0_0 E6_P7_P0_0" intLanes=":P0_3_0 :P0_10_0 :P0_16_0 :P0_22_0"/>
    <junction id=":P0_29_0" type="internal" x="52.68" y="372.12" incLanes=":P0_13_0 E3_P4_P0_0" intLanes=":P0_1_0 :P0_2_0 :P0_7_0 :P0_8_0 :P0_16_0 :P0_17_0 :P0_18_0 :P0_19_0 :P0_20_0 :P0_21_0"/>
    <junction id=":P0_30_0" type="internal" x="57.56" y="369.04" incLanes=":P0_14_0 E2_P3_P0_0 E3_P4_P0_0 E4_P5_P0_0 E5_P6_P0_0" intLanes=":P0_2_0 :P0_8_0 :P0_15_0 :P0_21_0"/>
    <junction id=":P0_31_0" type="internal" x="48.79" y="377.02" incLanes=":P0_18_0 E5_P6_P0_0" intLanes=":P0_0_0 :P0_1_0 :P0_6_0 :P0_7_0 :P0_12_0 :P0_13_0 :P0_21_0 :P0_22_0 :P0_23_0 :P0_24_0"/>
    <junction id=":P0_32_0" type="internal" x="48.38" y="368.76" incLanes=":P0_19_0 E2_P3_P0_0 E3_P4_P0_0 E5_P6_P0_0 E6_P7_P0_0" intLanes=":P0_1_0 :P0_7_0 :P0_13_0 :P0_20_0"/>
    <junction id=":P0_33_0" type="internal" x="51.72" y="374.58" incLanes=":P0_22_0 E6_P7_P0_0" intLanes=":P0_1_0 :P0_2_0 :P0_3_0 :P0_7_0 :P0_8_0 :P0_9_0 :P0_10_0 :P0_11_0 :P0_12_0 :P0_16_0 :P0_17_0 :P0_18_0"/>
    <junction id=":P0_34_0" type="internal" x="50.19" y="375.99" incLanes=":P0_23_0 E6_P7_P0_0" intLanes=":P0_1_0 :P0_2_0 :P0_3_0 :P0_4_0 :P0_5_0 :P0_6_0 :P0_11_0 :P0_12_0 :P0_17_0 :P0_18_0"/>
    <junction id=":P0_35_0" type="internal" x="47.59" y="379.12" incLanes=":P0_24_0 E2_P3_P0_0 E4_P5_P0_0 E5_P6_P0_0 E6_P7_P0_0" intLanes=":P0_0_0 :P0_6_0 :P0_12_0 :P0_18_0"/>

    <connection from="E2_P0_P3" to="E2_P3_P0" fromLane="0" toLane="0" via=":P3_0_0" dir="t" state="M"/>
    <connection from="E2_P3_P0" to="E5_P0_P6" fromLane="0" toLane="0" via=":P0_5_0" tl="P0" linkIndex="5" dir="r" state="o"/>
    <connection from="E2_P3_P0" to="E3_P0_P4" fromLane="0" toLane="0" via=":P0_6_0" tl="P0" linkIndex="6" dir="R" state="o"/>
    <connection from="E2_P3_P0" to="E4_P0_P5" fromLane="0" toLane="0" via=":P0_7_0" tl="P0" linkIndex="7" dir="L" state="o"/>
    <connection from="E2_P3_P0" to="E6_P0_P7" fromLane="0" toLane="0" via=":P0_8_0" tl="P0" linkIndex="8" dir="l" state="o"/>
    <connection from="E2_P3_P0" to="E2_P0_P3" fromLane="0" toLane="0" via=":P0_9_0" tl="P0" linkIndex="9" dir="t" state="o"/>
    <connection from="E3_P0_P4" to="E3_P4_P0" fromLane="0" toLane="0" via=":P4_0_0" dir="t" state="M"/>
    <connection from="E3_P4_P0" to="E4_P0_P5" fromLane="0" toLane="0" via=":P0_20_0" tl="P0" linkIndex="20" dir="r" state="O"/>
    <connection from="E3_P4_P0" to="E6_P0_P7" fromLane="0" toLane="0" via=":P0_21_0" tl="P0" linkIndex="21" dir="s" state="O"/>
    <connection from="E3_P4_P0" to="E2_P0_P3" fromLane="0" toLane="0" via=":P0_22_0" tl="P0" linkIndex="22" dir="L" state="o"/>
    <connection from="E3_P4_P0" to="E5_P0_P6" fromLane="0" toLane="0" via=":P0_23_0" tl="P0" linkIndex="23" dir="l" state="o"/>
    <connection from="E3_P4_P0" to="E3_P0_P4" fromLane="0" toLane="0" via=":P0_24_0" tl="P0" linkIndex="24" dir="t" state="o"/>
    <connection from="E4_P0_P5" to="E4_P5_P0" fromLane="0" toLane="0" via=":P5_0_0" dir="t" state="M"/>
    <connection from="E4_P5_P0" to="E6_P0_P7" fromLane="0" toLane="0" via=":P0_15_0" tl="P0" linkIndex="15" dir="r" state="o"/>
    <connection from="E4_P5_P0" to="E2_P0_P3" fromLane="0" toLane="0" via=":P0_16_0" tl="P0" linkIndex="16" dir="R" state="o"/>
    <connection from="E4_P5_P0" to="E5_P0_P6" fromLane="0" toLane="0" via=":P0_17_0" tl="P0" linkIndex="17" dir="s" state="o"/>
    <connection from="E4_P5_P0" to="E3_P0_P4" fromLane="0" toLane="0" via=":P0_18_0" tl="P0" linkIndex="18" dir="l" state="o"/>
    <connection from="E4_P5_P0" to="E4_P0_P5" fromLane="0" toLane="0" via=":P0_19_0" tl="P0" linkIndex="19" dir="t" state="o"/>
    <connection from="E5_P0_P6" to="E5_P6_P0" fromLane="0" toLane="0" via=":P6_0_0" dir="t" state="M"/>
    <connection from="E5_P6_P0" to="E3_P0_P4" fromLane="0" toLane="0" via=":P0_0_0" tl="P0" linkIndex="0" dir="r" state="o"/>
    <connection from="E5_P6_P0" to="E4_P0_P5" fromLane="0" toLane="0" via=":P0_1_0" tl="P0" linkIndex="1" dir="s" state="o"/>
    <connection from="E5_P6_P0" to="E6_P0_P7" fromLane="0" toLane="0" via=":P0_2_0" tl="P0" linkIndex="2" dir="l" state="o"/>
    <connection from="E5_P6_P0" to="E2_P0_P3" fromLane="0" toLane="0" via=":P0_3_0" tl="P0" linkIndex="3" dir="l" state="o"/>
    <connection from="E5_P6_P0" to="E5_P0_P6" fromLane="0" toLane="0" via=":P0_4_0" tl="P0" linkIndex="4" dir="t" state="o"/>
    <connection from="E6_P0_P7" to="E6_P7_P0" fromLane="0" toLane="0" via=":P7_0_0" dir="t" state="M"/>
    <connection from="E6_P7_P0" to="E2_P0_P3" fromLane="0" toLane="0" via=":P0_10_0" tl="P0" linkIndex="10" dir="r" state="O"/>
    <connection from="E6_P7_P0" to="E5_P0_P6" fromLane="0" toLane="0" via=":P0_11_0" tl="P0" linkIndex="11" dir="r" state="O"/>
    <connection from="E6_P7_P0" to="E3_P0_P4" fromLane="0" toLane="0" via=":P0_12_0" tl="P0" linkIndex="12" dir="s" state="O"/>
    <connection from="E6_P7_P0" to="E4_P0_P5" fromLane="0" toLane="0" via=":P0_13_0" tl="P0" linkIndex="13" dir="l" state="o"/>
    <connection from="E6_P7_P0" to="E6_P0_P7" fromLane="0" toLane="0" via=":P0_14_0" tl="P0" linkIndex="14" dir="t" state="o"/>

    <connection from=":P0_0" to="E3_P0_P4" fromLane="0" toLane="0" dir="r" state="M"/>
    <connection from=":P0_1" to="E4_P0_P5" fromLane="0" toLane="0" dir="s" state="M"/>
    <connection from=":P0_2" to="E6_P0_P7" fromLane="0" toLane="0" via=":P0_25_0" dir="l" state="m"/>
    <connection from=":P0_25" to="E6_P0_P7" fromLane="0" toLane="0" dir="l" state="M"/>
    <connection from=":P0_3" to="E2_P0_P3" fromLane="0" toLane="0" via=":P0_26_0" dir="l" state="m"/>
    <connection from=":P0_26" to="E2_P0_P3" fromLane="0" toLane="0" dir="l" state="M"/>
    <connection from=":P0_4" to="E5_P0_P6" fromLane="0" toLane="0" via=":P0_27_0" dir="t" state="m"/>
    <connection from=":P0_27" to="E5_P0_P6" fromLane="0" toLane="0" dir="t" state="M"/>
    <connection from=":P0_5" to="E5_P0_P6" fromLane="0" toLane="0" dir="r" state="M"/>
    <connection from=":P0_6" to="E3_P0_P4" fromLane="0" toLane="0" dir="R" state="M"/>
    <connection from=":P0_7" to="E4_P0_P5" fromLane="0" toLane="0" dir="L" state="M"/>
    <connection from=":P0_8" to="E6_P0_P7" fromLane="0" toLane="0" dir="l" state="M"/>
    <connection from=":P0_9" to="E2_P0_P3" fromLane="0" toLane="0" via=":P0_28_0" dir="t" state="m"/>
    <connection from=":P0_28" to="E2_P0_P3" fromLane="0" toLane="0" dir="t" state="M"/>
    <connection from=":P0_10" to="E2_P0_P3" fromLane="0" toLane="0" dir="r" state="M"/>
    <connection from=":P0_11" to="E5_P0_P6" fromLane="0" toLane="0" dir="r" state="M"/>
    <connection from=":P0_12" to="E3_P0_P4" fromLane="0" toLane="0" dir="s" state="M"/>
    <connection from=":P0_13" to="E4_P0_P5" fromLane="0" toLane="0" via=":P0_29_0" dir="l" state="m"/>
    <connection from=":P0_29" to="E4_P0_P5" fromLane="0" toLane="0" dir="l" state="M"/>
    <connection from=":P0_14" to="E6_P0_P7" fromLane="0" toLane="0" via=":P0_30_0" dir="t" state="m"/>
    <connection from=":P0_30" to="E6_P0_P7" fromLane="0" toLane="0" dir="t" state="M"/>
    <connection from=":P0_15" to="E6_P0_P7" fromLane="0" toLane="0" dir="r" state="M"/>
    <connection from=":P0_16" to="E2_P0_P3" fromLane="0" toLane="0" dir="R" state="M"/>
    <connection from=":P0_17" to="E5_P0_P6" fromLane="0" toLane="0" dir="s" state="M"/>
    <connection from=":P0_18" to="E3_P0_P4" fromLane="0" toLane="0" via=":P0_31_0" dir="l" state="m"/>
    <connection from=":P0_31" to="E3_P0_P4" fromLane="0" toLane="0" dir="l" state="M"/>
    <connection from=":P0_19" to="E4_P0_P5" fromLane="0" toLane="0" via=":P0_32_0" dir="t" state="m"/>
    <connection from=":P0_32" to="E4_P0_P5" fromLane="0" toLane="0" dir="t" state="M"/>
    <connection from=":P0_20" to="E4_P0_P5" fromLane="0" toLane="0" dir="r" state="M"/>
    <connection from=":P0_21" to="E6_P0_P7" fromLane="0" toLane="0" dir="s" state="M"/>
    <connection from=":P0_22" to="E2_P0_P3" fromLane="0" toLane="0" via=":P0_33_0" dir="L" state="m"/>
    <connection from=":P0_33" to="E2_P0_P3" fromLane="0" toLane="0" dir="L" state="M"/>
    <connection from=":P0_23" to="E5_P0_P6" fromLane="0" toLane="0" via=":P0_34_0" dir="l" state="m"/>
    <connection from=":P0_34" to="E5_P0_P6" fromLane="0" toLane="0" dir="l" state="M"/>
    <connection from=":P0_24" to="E3_P0_P4" fromLane="0" toLane="0" via=":P0_35_0" dir="t" state="m"/>
    <connection from=":P0_35" to="E3_P0_P4" fromLane="0" toLane="0" dir="t" state="M"/>
    <connection from=":P3_0" to="E2_P3_P0" fromLane="0" toLane="0" dir="t" state="M"/>
    <connection from=":P4_0" to="E3_P4_P0" fromLane="0" toLane="0" dir="t" state="M"/>
    <connection from=":P5_0" to="E4_P5_P0" fromLane="0" toLane="0" dir="t" state="M"/>
    <connection from=":P6_0" to="E5_P6_P0" fromLane="0" toLane="0" dir="t" state="M"/>
    <connection from=":P7_0" to="E6_P7_P0" fromLane="0" toLane="0" dir="t" state="M"/>

</net>
