<?xml version="1.0" encoding="UTF-8"?>

<!-- generated on 2026-04-12T19:18:13.796367+05:30 by Eclipse SUMO netconvert 1.26.0
<netconvertConfiguration xmlns:xsi="http://www.w3.org/2001/XMLSchema-instance" xsi:noNamespaceSchemaLocation="http://sumo.dlr.de/xsd/netconvertConfiguration.xsd">

    <input>
        <node-files value="C:\Users\santhosh\OneDrive\Desktop\trafiic pro\web_runs\20260412_191759_505069\area.nod.xml"/>
        <edge-files value="C:\Users\santhosh\OneDrive\Desktop\trafiic pro\web_runs\20260412_191759_505069\area.edg.xml"/>
    </input>

    <output>
        <output-file value="C:\Users\santhosh\OneDrive\Desktop\trafiic pro\web_runs\20260412_191759_505069\area.net.xml"/>
    </output>

    <building_defaults>
        <default.lanewidth value="1.5"/>
    </building_defaults>

    <junctions>
        <junctions.corner-detail value="0"/>
    </junctions>

</netconvertConfiguration>
-->

<net version="1.20" limitTurnSpeed="5.50" xmlns:xsi="http://www.w3.org/2001/XMLSchema-instance" xsi:noNamespaceSchemaLocation="http://sumo.dlr.de/xsd/net_file.xsd">

    <location netOffset="-50.00,-50.00" convBoundary="0.00,0.00,600.00,360.00" origBoundary="50.00,50.00,650.00,410.00" projParameter="!"/>

    <edge id=":J0_0" function="internal">
        <lane id=":J0_0_0" index="0" speed="2.50" length="2.19" width="1.50" shape="600.00,359.25 600.56,359.62 600.75,360.00 600.56,360.38 600.00,360.75"/>
    </edge>
    <edge id=":J1_0" function="internal">
        <lane id=":J1_0_0" index="0" speed="4.16" length="3.63" width="1.50" shape="301.50,360.75 300.52,360.61 299.81,360.19 299.39,359.48 299.25,358.50"/>
    </edge>
    <edge id=":J1_1" function="internal">
        <lane id=":J1_1_0" index="0" speed="2.67" length="1.21" width="1.50" shape="300.75,358.50 300.80,358.83 300.94,359.06 301.17,359.20 301.50,359.25"/>
    </edge>
    <edge id=":J2_0" function="internal">
        <lane id=":J2_0_0" index="0" speed="5.85" length="7.66" width="1.50" shape="299.25,185.50 298.95,183.42 298.06,181.94 296.58,181.05 294.50,180.75"/>
    </edge>
    <edge id=":J2_1" function="internal">
        <lane id=":J2_1_0" index="0" speed="13.90" length="11.00" width="1.50" shape="299.25,185.50 299.25,174.50"/>
    </edge>
    <edge id=":J2_2" function="internal">
        <lane id=":J2_2_0" index="0" speed="6.66" length="4.71" width="1.50" shape="299.25,185.50 299.64,182.77 300.64,181.09"/>
    </edge>
    <edge id=":J2_3" function="internal">
        <lane id=":J2_3_0" index="0" speed="2.50" length="1.87" width="1.50" shape="299.25,185.50 299.62,184.94 300.00,184.75 300.38,184.94 300.57,185.23"/>
    </edge>
    <edge id=":J2_16" function="internal">
        <lane id=":J2_16_0" index="0" speed="6.66" length="5.37" width="1.50" shape="300.64,181.09 300.81,180.81 302.77,179.64 305.50,179.25"/>
    </edge>
    <edge id=":J2_17" function="internal">
        <lane id=":J2_17_0" index="0" speed="2.50" length="0.32" width="1.50" shape="300.57,185.23 300.75,185.50"/>
    </edge>
    <edge id=":J2_4" function="internal">
        <lane id=":J2_4_0" index="0" speed="5.85" length="7.66" width="1.50" shape="305.50,180.75 303.42,181.05 301.94,181.94 301.05,183.42 300.75,185.50"/>
    </edge>
    <edge id=":J2_5" function="internal">
        <lane id=":J2_5_0" index="0" speed="13.90" length="11.00" width="1.50" shape="305.50,180.75 294.50,180.75"/>
    </edge>
    <edge id=":J2_6" function="internal">
        <lane id=":J2_6_0" index="0" speed="6.66" length="4.71" width="1.50" shape="305.50,180.75 302.77,180.36 301.09,179.36"/>
    </edge>
    <edge id=":J2_7" function="internal">
        <lane id=":J2_7_0" index="0" speed="2.50" length="1.87" width="1.50" shape="305.50,180.75 304.94,180.38 304.75,180.00 304.94,179.62 305.23,179.43"/>
    </edge>
    <edge id=":J2_18" function="internal">
        <lane id=":J2_18_0" index="0" speed="6.66" length="5.37" width="1.50" shape="301.09,179.36 300.81,179.19 299.64,177.23 299.25,174.50"/>
    </edge>
    <edge id=":J2_19" function="internal">
        <lane id=":J2_19_0" index="0" speed="2.50" length="0.32" width="1.50" shape="305.23,179.43 305.50,179.25"/>
    </edge>
    <edge id=":J2_8" function="internal">
        <lane id=":J2_8_0" index="0" speed="5.85" length="7.66" width="1.50" shape="300.75,174.50 301.05,176.58 301.94,178.06 303.42,178.95 305.50,179.25"/>
    </edge>
    <edge id=":J2_9" function="internal">
        <lane id=":J2_9_0" index="0" speed="13.90" length="11.00" width="1.50" shape="300.75,174.50 300.75,185.50"/>
    </edge>
    <edge id=":J2_10" function="internal">
        <lane id=":J2_10_0" index="0" speed="6.66" length="4.71" width="1.50" shape="300.75,174.50 300.36,177.23 299.36,178.91"/>
    </edge>
    <edge id=":J2_11" function="internal">
        <lane id=":J2_11_0" index="0" speed="2.50" length="1.87" width="1.50" shape="300.75,174.50 300.38,175.06 300.00,175.25 299.62,175.06 299.43,174.77"/>
    </edge>
    <edge id=":J2_20" function="internal">
        <lane id=":J2_20_0" index="0" speed="6.66" length="5.37" width="1.50" shape="299.36,178.91 299.19,179.19 297.23,180.36 294.50,180.75"/>
    </edge>
    <edge id=":J2_21" function="internal">
        <lane id=":J2_21_0" index="0" speed="2.50" length="0.32" width="1.50" shape="299.43,174.77 299.25,174.50"/>
    </edge>
    <edge id=":J2_12" function="internal">
        <lane id=":J2_12_0" index="0" speed="5.85" length="7.66" width="1.50" shape="294.50,179.25 296.58,178.95 298.06,178.06 298.95,176.58 299.25,174.50"/>
    </edge>
    <edge id=":J2_13" function="internal">
        <lane id=":J2_13_0" index="0" speed="13.90" length="11.00" width="1.50" shape="294.50,179.25 305.50,179.25"/>
    </edge>
    <edge id=":J2_14" function="internal">
        <lane id=":J2_14_0" index="0" speed="6.66" length="4.71" width="1.50" shape="294.50,179.25 297.23,179.64 298.91,180.64"/>
    </edge>
    <edge id=":J2_15" function="internal">
        <lane id=":J2_15_0" index="0" speed="2.50" length="1.87" width="1.50" shape="294.50,179.25 295.06,179.62 295.25,180.00 295.06,180.38 294.77,180.57"/>
    </edge>
    <edge id=":J2_22" function="internal">
        <lane id=":J2_22_0" index="0" speed="6.66" length="5.37" width="1.50" shape="298.91,180.64 299.19,180.81 300.36,182.77 300.75,185.50"/>
    </edge>
    <edge id=":J2_23" function="internal">
        <lane id=":J2_23_0" index="0" speed="2.50" length="0.32" width="1.50" shape="294.77,180.57 294.50,180.75"/>
    </edge>
    <edge id=":J3_0" function="internal">
        <lane id=":J3_0_0" index="0" speed="2.50" length="2.19" width="1.50" shape="299.25,0.00 299.62,-0.56 300.00,-0.75 300.38,-0.56 300.75,0.00"/>
    </edge>
    <edge id=":J4_0" function="internal">
        <lane id=":J4_0_0" index="0" speed="2.50" length="2.19" width="1.50" shape="0.00,180.75 -0.56,180.38 -0.75,180.00 -0.56,179.62 0.00,179.25"/>
    </edge>
    <edge id=":J5_0" function="internal">
        <lane id=":J5_0_0" index="0" speed="2.50" length="2.19" width="1.50" shape="600.00,179.25 600.56,179.62 600.75,180.00 600.56,180.38 600.00,180.75"/>
    </edge>

    <edge id="R0_J0_J1" from="J0" to="J1" priority="-1">
        <lane id="R0_J0_J1_0" index="0" speed="13.90" length="298.50" width="1.50" shape="600.00,360.75 301.50,360.75"/>
    </edge>
    <edge id="R0_J1_J0" from="J1" to="J0" priority="-1">
        <lane id="R0_J1_J0_0" index="0" speed="13.90" length="298.50" width="1.50" shape="301.50,359.25 600.00,359.25"/>
    </edge>
    <edge id="R1_J1_J2" from="J1" to="J2" priority="-1">
        <lane id="R1_J1_J2_0" index="0" speed="13.90" length="173.00" width="1.50" shape="299.25,358.50 299.25,185.50"/>
    </edge>
    <edge id="R1_J2_J1" from="J2" to="J1" priority="-1">
        <lane id="R1_J2_J1_0" index="0" speed="13.90" length="173.00" width="1.50" shape="300.75,185.50 300.75,358.50"/>
    </edge>
    <edge id="R2_J2_J3" from="J2" to="J3" priority="-1">
        <lane id="R2_J2_J3_0" index="0" speed="13.90" length="174.50" width="1.50" shape="299.25,174.50 299.25,0.00"/>
    </edge>
    <edge id="R2_J3_J2" from="J3" to="J2" priority="-1">
        <lane id="R2_J3_J2_0" index="0" speed="13.90" length="174.50" width="1.50" shape="300.75,0.00 300.75,174.50"/>
    </edge>
    <edge id="R3_J2_J4" from="J2" to="J4" priority="-1">
        <lane id="R3_J2_J4_0" index="0" speed="13.90" length="294.50" width="1.50" shape="294.50,180.75 0.00,180.75"/>
    </edge>
    <edge id="R3_J4_J2" from="J4" to="J2" priority="-1">
        <lane id="R3_J4_J2_0" index="0" speed="13.90" length="294.50" width="1.50" shape="0.00,179.25 294.50,179.25"/>
    </edge>
    <edge id="R4_J2_J5" from="J2" to="J5" priority="-1">
        <lane id="R4_J2_J5_0" index="0" speed="13.90" length="294.50" width="1.50" shape="305.50,179.25 600.00,179.25"/>
    </edge>
    <edge id="R4_J5_J2" from="J5" to="J2" priority="-1">
        <lane id="R4_J5_J2_0" index="0" speed="13.90" length="294.50" width="1.50" shape="600.00,180.75 305.50,180.75"/>
    </edge>

    <tlLogic id="J1" type="static" programID="0" offset="0">
        <phase duration="90" state="GG"/>
    </tlLogic>
    <tlLogic id="J2" type="static" programID="0" offset="0">
        <phase duration="42" state="GGggrrrrGGggrrrr"/>
        <phase duration="3"  state="yyyyrrrryyyyrrrr"/>
        <phase duration="42" state="rrrrGGggrrrrGGgg"/>
        <phase duration="3"  state="rrrryyyyrrrryyyy"/>
    </tlLogic>

    <junction id="J0" type="priority" x="600.00" y="360.00" incLanes="R0_J1_J0_0" intLanes=":J0_0_0" shape="600.00,360.00 600.00,358.50 600.00,360.00">
        <request index="0" response="0" foes="0" cont="0"/>
    </junction>
    <junction id="J1" type="traffic_light" x="300.00" y="360.00" incLanes="R0_J0_J1_0 R1_J2_J1_0" intLanes=":J1_0_0 :J1_1_0" shape="301.50,361.50 301.50,358.50 298.50,358.50">
        <request index="0" response="00" foes="00" cont="0"/>
        <request index="1" response="00" foes="00" cont="0"/>
    </junction>
    <junction id="J2" type="traffic_light" x="300.00" y="180.00" incLanes="R1_J1_J2_0 R4_J5_J2_0 R2_J3_J2_0 R3_J4_J2_0" intLanes=":J2_0_0 :J2_1_0 :J2_16_0 :J2_17_0 :J2_4_0 :J2_5_0 :J2_18_0 :J2_19_0 :J2_8_0 :J2_9_0 :J2_20_0 :J2_21_0 :J2_12_0 :J2_13_0 :J2_22_0 :J2_23_0" shape="298.50,185.50 301.50,185.50 305.50,181.50 305.50,178.50 301.50,174.50 298.50,174.50 294.50,178.50 294.50,181.50">
        <request index="0"  response="0000000000000000" foes="1000010000100000" cont="0"/>
        <request index="1"  response="0100000001000000" foes="0111110001100000" cont="0"/>
        <request index="2"  response="0100001101000000" foes="0110001111100000" cont="1"/>
        <request index="3"  response="0100001000010000" foes="0100001000010000" cont="1"/>
        <request index="4"  response="0000001000000000" foes="0100001000001000" cont="0"/>
        <request index="5"  response="0000011000000111" foes="1100011000000111" cont="0"/>
        <request index="6"  response="0011011000000110" foes="0011111000000110" cont="1"/>
        <request index="7"  response="0010000100000100" foes="0010000100000100" cont="1"/>
        <request index="8"  response="0000000000000000" foes="0010000010000100" cont="0"/>
        <request index="9"  response="0100000001000000" foes="0110000001111100" cont="0"/>
        <request index="10" response="0100000001000011" foes="1110000001100011" cont="1"/>
        <request index="11" response="0001000001000010" foes="0001000001000010" cont="1"/>
        <request index="12" response="0000000000000010" foes="0000100001000010" cont="0"/>
        <request index="13" response="0000011100000110" foes="0000011111000110" cont="0"/>
        <request index="14" response="0000011000110110" foes="0000011000111110" cont="1"/>
        <request index="15" response="0000010000100001" foes="0000010000100001" cont="1"/>
    </junction>
    <junction id="J3" type="priority" x="300.00" y="0.00" incLanes="R2_J2_J3_0" intLanes=":J3_0_0" shape="300.00,0.00 298.50,0.00 300.00,0.00">
        <request index="0" response="0" foes="0" cont="0"/>
    </junction>
    <junction id="J4" type="priority" x="0.00" y="180.00" incLanes="R3_J2_J4_0" intLanes=":J4_0_0" shape="0.00,180.00 0.00,181.50 0.00,180.00">
        <request index="0" response="0" foes="0" cont="0"/>
    </junction>
    <junction id="J5" type="priority" x="600.00" y="180.00" incLanes="R4_J2_J5_0" intLanes=":J5_0_0" shape="600.00,180.00 600.00,178.50 600.00,180.00">
        <request index="0" response="0" foes="0" cont="0"/>
    </junction>

    <junction id=":J2_16_0" type="internal" x="300.64" y="181.09" incLanes=":J2_2_0 R2_J3_J2_0" intLanes=":J2_5_0 :J2_6_0 :J2_7_0 :J2_8_0 :J2_9_0 :J2_13_0 :J2_14_0"/>
    <junction id=":J2_17_0" type="internal" x="300.57" y="185.23" incLanes=":J2_3_0 R2_J3_J2_0 R3_J4_J2_0 R4_J5_J2_0" intLanes=":J2_4_0 :J2_9_0 :J2_14_0"/>
    <junction id=":J2_18_0" type="internal" x="301.09" y="179.36" incLanes=":J2_6_0 R3_J4_J2_0" intLanes=":J2_1_0 :J2_2_0 :J2_9_0 :J2_10_0 :J2_11_0 :J2_12_0 :J2_13_0"/>
    <junction id=":J2_19_0" type="internal" x="305.23" y="179.43" incLanes=":J2_7_0 R1_J1_J2_0 R2_J3_J2_0 R3_J4_J2_0" intLanes=":J2_2_0 :J2_8_0 :J2_13_0"/>
    <junction id=":J2_20_0" type="internal" x="299.36" y="178.91" incLanes=":J2_10_0 R1_J1_J2_0" intLanes=":J2_0_0 :J2_1_0 :J2_5_0 :J2_6_0 :J2_13_0 :J2_14_0 :J2_15_0"/>
    <junction id=":J2_21_0" type="internal" x="299.43" y="174.77" incLanes=":J2_11_0 R1_J1_J2_0 R3_J4_J2_0 R4_J5_J2_0" intLanes=":J2_1_0 :J2_6_0 :J2_12_0"/>
    <junction id=":J2_22_0" type="internal" x="298.91" y="180.64" incLanes=":J2_14_0 R4_J5_J2_0" intLanes=":J2_1_0 :J2_2_0 :J2_3_0 :J2_4_0 :J2_5_0 :J2_9_0 :J2_10_0"/>
    <junction id=":J2_23_0" type="internal" x="294.77" y="180.57" incLanes=":J2_15_0 R1_J1_J2_0 R2_J3_J2_0 R4_J5_J2_0" intLanes=":J2_0_0 :J2_5_0 :J2_10_0"/>

    <connection from="R0_J0_J1" to="R1_J1_J2" fromLane="0" toLane="0" via=":J1_0_0" tl="J1" linkIndex="0" dir="l" state="O"/>
    <connection from="R0_J1_J0" to="R0_J0_J1" fromLane="0" toLane="0" via=":J0_0_0" dir="t" state="M"/>
    <connection from="R1_J1_J2" to="R3_J2_J4" fromLane="0" toLane="0" via=":J2_0_0" tl="J2" linkIndex="0" dir="r" state="O"/>
    <connection from="R1_J1_J2" to="R2_J2_J3" fromLane="0" toLane="0" via=":J2_1_0" tl="J2" linkIndex="1" dir="s" state="O"/>
    <connection from="R1_J1_J2" to="R4_J2_J5" fromLane="0" toLane="0" via=":J2_2_0" tl="J2" linkIndex="2" dir="l" state="o"/>
    <connection from="R1_J1_J2" to="R1_J2_J1" fromLane="0" toLane="0" via=":J2_3_0" tl="J2" linkIndex="3" dir="t" state="o"/>
    <connection from="R1_J2_J1" to="R0_J1_J0" fromLane="0" toLane="0" via=":J1_1_0" tl="J1" linkIndex="1" dir="r" state="O"/>
    <connection from="R2_J2_J3" to="R2_J3_J2" fromLane="0" toLane="0" via=":J3_0_0" dir="t" state="M"/>
    <connection from="R2_J3_J2" to="R4_J2_J5" fromLane="0" toLane="0" via=":J2_8_0" tl="J2" linkIndex="8" dir="r" state="O"/>
    <connection from="R2_J3_J2" to="R1_J2_J1" fromLane="0" toLane="0" via=":J2_9_0" tl="J2" linkIndex="9" dir="s" state="O"/>
    <connection from="R2_J3_J2" to="R3_J2_J4" fromLane="0" toLane="0" via=":J2_10_0" tl="J2" linkIndex="10" dir="l" state="o"/>
    <connection from="R2_J3_J2" to="R2_J2_J3" fromLane="0" toLane="0" via=":J2_11_0" tl="J2" linkIndex="11" dir="t" state="o"/>
    <connection from="R3_J2_J4" to="R3_J4_J2" fromLane="0" toLane="0" via=":J4_0_0" dir="t" state="M"/>
    <connection from="R3_J4_J2" to="R2_J2_J3" fromLane="0" toLane="0" via=":J2_12_0" tl="J2" linkIndex="12" dir="r" state="o"/>
    <connection from="R3_J4_J2" to="R4_J2_J5" fromLane="0" toLane="0" via=":J2_13_0" tl="J2" linkIndex="13" dir="s" state="o"/>
    <connection from="R3_J4_J2" to="R1_J2_J1" fromLane="0" toLane="0" via=":J2_14_0" tl="J2" linkIndex="14" dir="l" state="o"/>
    <connection from="R3_J4_J2" to="R3_J2_J4" fromLane="0" toLane="0" via=":J2_15_0" tl="J2" linkIndex="15" dir="t" state="o"/>
    <connection from="R4_J2_J5" to="R4_J5_J2" fromLane="0" toLane="0" via=":J5_0_0" dir="t" state="M"/>
    <connection from="R4_J5_J2" to="R1_J2_J1" fromLane="0" toLane="0" via=":J2_4_0" tl="J2" linkIndex="4" dir="r" state="o"/>
    <connection from="R4_J5_J2" to="R3_J2_J4" fromLane="0" toLane="0" via=":J2_5_0" tl="J2" linkIndex="5" dir="s" state="o"/>
    <connection from="R4_J5_J2" to="R2_J2_J3" fromLane="0" toLane="0" via=":J2_6_0" tl="J2" linkIndex="6" dir="l" state="o"/>
    <connection from="R4_J5_J2" to="R4_J2_J5" fromLane="0" toLane="0" via=":J2_7_0" tl="J2" linkIndex="7" dir="t" state="o"/>

    <connection from=":J0_0" to="R0_J0_J1" fromLane="0" toLane="0" dir="t" state="M"/>
    <connection from=":J1_0" to="R1_J1_J2" fromLane="0" toLane="0" dir="l" state="M"/>
    <connection from=":J1_1" to="R0_J1_J0" fromLane="0" toLane="0" dir="r" state="M"/>
    <connection from=":J2_0" to="R3_J2_J4" fromLane="0" toLane="0" dir="r" state="M"/>
    <connection from=":J2_1" to="R2_J2_J3" fromLane="0" toLane="0" dir="s" state="M"/>
    <connection from=":J2_2" to="R4_J2_J5" fromLane="0" toLane="0" via=":J2_16_0" dir="l" state="m"/>
    <connection from=":J2_16" to="R4_J2_J5" fromLane="0" toLane="0" dir="l" state="M"/>
    <connection from=":J2_3" to="R1_J2_J1" fromLane="0" toLane="0" via=":J2_17_0" dir="t" state="m"/>
    <connection from=":J2_17" to="R1_J2_J1" fromLane="0" toLane="0" dir="t" state="M"/>
    <connection from=":J2_4" to="R1_J2_J1" fromLane="0" toLane="0" dir="r" state="M"/>
    <connection from=":J2_5" to="R3_J2_J4" fromLane="0" toLane="0" dir="s" state="M"/>
    <connection from=":J2_6" to="R2_J2_J3" fromLane="0" toLane="0" via=":J2_18_0" dir="l" state="m"/>
    <connection from=":J2_18" to="R2_J2_J3" fromLane="0" toLane="0" dir="l" state="M"/>
    <connection from=":J2_7" to="R4_J2_J5" fromLane="0" toLane="0" via=":J2_19_0" dir="t" state="m"/>
    <connection from=":J2_19" to="R4_J2_J5" fromLane="0" toLane="0" dir="t" state="M"/>
    <connection from=":J2_8" to="R4_J2_J5" fromLane="0" toLane="0" dir="r" state="M"/>
    <connection from=":J2_9" to="R1_J2_J1" fromLane="0" toLane="0" dir="s" state="M"/>
    <connection from=":J2_10" to="R3_J2_J4" fromLane="0" toLane="0" via=":J2_20_0" dir="l" state="m"/>
    <connection from=":J2_20" to="R3_J2_J4" fromLane="0" toLane="0" dir="l" state="M"/>
    <connection from=":J2_11" to="R2_J2_J3" fromLane="0" toLane="0" via=":J2_21_0" dir="t" state="m"/>
    <connection from=":J2_21" to="R2_J2_J3" fromLane="0" toLane="0" dir="t" state="M"/>
    <connection from=":J2_12" to="R2_J2_J3" fromLane="0" toLane="0" dir="r" state="M"/>
    <connection from=":J2_13" to="R4_J2_J5" fromLane="0" toLane="0" dir="s" state="M"/>
    <connection from=":J2_14" to="R1_J2_J1" fromLane="0" toLane="0" via=":J2_22_0" dir="l" state="m"/>
    <connection from=":J2_22" to="R1_J2_J1" fromLane="0" toLane="0" dir="l" state="M"/>
    <connection from=":J2_15" to="R3_J2_J4" fromLane="0" toLane="0" via=":J2_23_0" dir="t" state="m"/>
    <connection from=":J2_23" to="R3_J2_J4" fromLane="0" toLane="0" dir="t" state="M"/>
    <connection from=":J3_0" to="R2_J3_J2" fromLane="0" toLane="0" dir="t" state="M"/>
    <connection from=":J4_0" to="R3_J4_J2" fromLane="0" toLane="0" dir="t" state="M"/>
    <connection from=":J5_0" to="R4_J5_J2" fromLane="0" toLane="0" dir="t" state="M"/>

</net>
