<nodes>
    <node id="P0" x="342.14" y="381.39" type="traffic_light"/>
    <node id="P1" x="508.62" y="509.8" type="traffic_light"/>
    <node id="P2" x="90.0" y="403.41" type="priority"/>
    <node id="P3" x="890.0" y="488.56" type="priority"/>
    <node id="P4" x="378.17" y="90.0" type="priority"/>
    <node id="P5" x="497.31" y="630.0" type="priority"/>
    <node id="P6" x="551.87" y="329.99" type="priority"/>
</nodes>