<routes>
    <vType id="passenger" accel="2.6" decel="4.5" sigma="0.5" length="5" maxSpeed="13.9"/>
    <vType id="emergency" accel="3.0" decel="5.0" sigma="0.2" length="5" maxSpeed="16.0" color="1,0,0"/>
    <route id="r0" edges="W0_to_J0_0 J0_0_to_E0"/>
    <route id="r1" edges="E0_to_J0_0 J0_0_to_W0"/>
    <route id="r2" edges="W1_to_J1_0 J1_0_to_E1"/>
    <route id="r3" edges="E1_to_J1_0 J1_0_to_W1"/>
    <route id="r4" edges="W2_to_J2_0 J2_0_to_E2"/>
    <route id="r5" edges="E2_to_J2_0 J2_0_to_W2"/>
    <route id="r6" edges="N0_to_J0_0 J0_0_to_J1_0 J1_0_to_J2_0 J2_0_to_S0"/>
    <route id="r7" edges="S0_to_J2_0 J2_0_to_J1_0 J1_0_to_J0_0 J0_0_to_N0"/>
    <vehicle id="veh0" type="passenger" route="r7" depart="0.0"/>
    <vehicle id="veh1" type="passenger" route="r7" depart="1.52"/>
    <vehicle id="veh2" type="passenger" route="r3" depart="3.03"/>
    <vehicle id="veh3" type="passenger" route="r7" depart="4.55"/>
    <vehicle id="veh4" type="passenger" route="r2" depart="6.06"/>
    <vehicle id="veh5" type="passenger" route="r4" depart="7.58"/>
    <vehicle id="veh6" type="passenger" route="r0" depart="9.09"/>
    <vehicle id="veh7" type="passenger" route="r6" depart="10.61"/>
    <vehicle id="veh8" type="passenger" route="r2" depart="12.12"/>
    <vehicle id="veh9" type="passenger" route="r1" depart="13.64"/>
    <vehicle id="veh10" type="passenger" route="r3" depart="15.15"/>
    <vehicle id="veh11" type="passenger" route="r0" depart="16.67"/>
    <vehicle id="veh12" type="passenger" route="r5" depart="18.18"/>
    <vehicle id="veh13" type="passenger" route="r3" depart="19.7"/>
    <vehicle id="veh14" type="passenger" route="r4" depart="21.21"/>
    <vehicle id="veh15" type="passenger" route="r1" depart="22.73"/>
    <vehicle id="veh16" type="passenger" route="r4" depart="24.24"/>
    <vehicle id="veh17" type="passenger" route="r1" depart="25.76"/>
    <vehicle id="veh18" type="passenger" route="r5" depart="27.27"/>
    <vehicle id="veh19" type="passenger" route="r4" depart="28.79"/>
    <vehicle id="veh20" type="passenger" route="r1" depart="30.3"/>
    <vehicle id="veh21" type="passenger" route="r4" depart="31.82"/>
    <vehicle id="veh22" type="passenger" route="r0" depart="33.33"/>
    <vehicle id="veh23" type="passenger" route="r0" depart="34.85"/>
    <vehicle id="veh24" type="passenger" route="r0" depart="36.36"/>
    <vehicle id="veh25" type="passenger" route="r6" depart="37.88"/>
    <vehicle id="veh26" type="passenger" route="r3" depart="39.39"/>
    <vehicle id="veh27" type="passenger" route="r4" depart="40.91"/>
    <vehicle id="veh28" type="passenger" route="r4" depart="42.42"/>
    <vehicle id="veh29" type="passenger" route="r6" depart="43.94"/>
    <vehicle id="veh30" type="passenger" route="r1" depart="45.45"/>
    <vehicle id="veh31" type="emergency" route="r1" depart="46.97"/>
    <vehicle id="veh32" type="passenger" route="r7" depart="48.48"/>
    <vehicle id="veh33" type="passenger" route="r2" depart="50.0"/>
    <vehicle id="veh34" type="passenger" route="r3" depart="51.52"/>
    <vehicle id="veh35" type="passenger" route="r3" depart="53.03"/>
    <vehicle id="veh36" type="passenger" route="r2" depart="54.55"/>
    <vehicle id="veh37" type="passenger" route="r6" depart="56.06"/>
    <vehicle id="veh38" type="passenger" route="r6" depart="57.58"/>
    <vehicle id="veh39" type="passenger" route="r0" depart="59.09"/>
    <vehicle id="veh40" type="passenger" route="r4" depart="60.61"/>
    <vehicle id="veh41" type="passenger" route="r0" depart="62.12"/>
    <vehicle id="veh42" type="passenger" route="r6" depart="63.64"/>
    <vehicle id="veh43" type="passenger" route="r1" depart="65.15"/>
    <vehicle id="veh44" type="passenger" route="r2" depart="66.67"/>
    <vehicle id="veh45" type="emergency" route="r4" depart="68.18"/>
    <vehicle id="veh46" type="passenger" route="r5" depart="69.7"/>
    <vehicle id="veh47" type="passenger" route="r6" depart="71.21"/>
    <vehicle id="veh48" type="passenger" route="r1" depart="72.73"/>
    <vehicle id="veh49" type="emergency" route="r3" depart="74.24"/>
    <vehicle id="veh50" type="passenger" route="r5" depart="75.76"/>
    <vehicle id="veh51" type="passenger" route="r7" depart="77.27"/>
    <vehicle id="veh52" type="passenger" route="r7" depart="78.79"/>
    <vehicle id="veh53" type="passenger" route="r2" depart="80.3"/>
    <vehicle id="veh54" type="passenger" route="r2" depart="81.82"/>
    <vehicle id="veh55" type="passenger" route="r4" depart="83.33"/>
    <vehicle id="veh56" type="passenger" route="r3" depart="84.85"/>
    <vehicle id="veh57" type="passenger" route="r2" depart="86.36"/>
    <vehicle id="veh58" type="passenger" route="r3" depart="87.88"/>
    <vehicle id="veh59" type="passenger" route="r6" depart="89.39"/>
    <vehicle id="veh60" type="passenger" route="r1" depart="90.91"/>
    <vehicle id="veh61" type="passenger" route="r1" depart="92.42"/>
    <vehicle id="veh62" type="passenger" route="r4" depart="93.94"/>
    <vehicle id="veh63" type="passenger" route="r6" depart="95.45"/>
    <vehicle id="veh64" type="passenger" route="r7" depart="96.97"/>
    <vehicle id="veh65" type="passenger" route="r2" depart="98.48"/>
    <vehicle id="veh66" type="passenger" route="r1" depart="100.0"/>
    <vehicle id="veh67" type="passenger" route="r7" depart="101.52"/>
    <vehicle id="veh68" type="passenger" route="r1" depart="103.03"/>
    <vehicle id="veh69" type="passenger" route="r3" depart="104.55"/>
    <vehicle id="veh70" type="passenger" route="r1" depart="106.06"/>
    <vehicle id="veh71" type="passenger" route="r7" depart="107.58"/>
    <vehicle id="veh72" type="passenger" route="r0" depart="109.09"/>
    <vehicle id="veh73" type="passenger" route="r5" depart="110.61"/>
    <vehicle id="veh74" type="passenger" route="r2" depart="112.12"/>
    <vehicle id="veh75" type="passenger" route="r2" depart="113.64"/>
    <vehicle id="veh76" type="passenger" route="r5" depart="115.15"/>
    <vehicle id="veh77" type="passenger" route="r2" depart="116.67"/>
    <vehicle id="veh78" type="passenger" route="r0" depart="118.18"/>
    <vehicle id="veh79" type="passenger" route="r5" depart="119.7"/>
    <vehicle id="veh80" type="passenger" route="r0" depart="121.21"/>
    <vehicle id="veh81" type="passenger" route="r1" depart="122.73"/>
    <vehicle id="veh82" type="passenger" route="r4" depart="124.24"/>
    <vehicle id="veh83" type="passenger" route="r1" depart="125.76"/>
    <vehicle id="veh84" type="passenger" route="r5" depart="127.27"/>
    <vehicle id="veh85" type="passenger" route="r2" depart="128.79"/>
    <vehicle id="veh86" type="passenger" route="r5" depart="130.3"/>
    <vehicle id="veh87" type="passenger" route="r7" depart="131.82"/>
    <vehicle id="veh88" type="passenger" route="r6" depart="133.33"/>
    <vehicle id="veh89" type="passenger" route="r0" depart="134.85"/>
    <vehicle id="veh90" type="passenger" route="r0" depart="136.36"/>
    <vehicle id="veh91" type="passenger" route="r6" depart="137.88"/>
    <vehicle id="veh92" type="passenger" route="r0" depart="139.39"/>
    <vehicle id="veh93" type="passenger" route="r1" depart="140.91"/>
    <vehicle id="veh94" type="passenger" route="r1" depart="142.42"/>
    <vehicle id="veh95" type="passenger" route="r6" depart="143.94"/>
    <vehicle id="veh96" type="passenger" route="r6" depart="145.45"/>
    <vehicle id="veh97" type="passenger" route="r7" depart="146.97"/>
    <vehicle id="veh98" type="passenger" route="r1" depart="148.48"/>
    <vehicle id="veh99" type="passenger" route="r0" depart="150.0"/>
    <vehicle id="veh100" type="passenger" route="r1" depart="151.52"/>
    <vehicle id="veh101" type="passenger" route="r3" depart="153.03"/>
    <vehicle id="veh102" type="passenger" route="r1" depart="154.55"/>
    <vehicle id="veh103" type="passenger" route="r7" depart="156.06"/>
    <vehicle id="veh104" type="passenger" route="r0" depart="157.58"/>
    <vehicle id="veh105" type="passenger" route="r2" depart="159.09"/>
    <vehicle id="veh106" type="passenger" route="r3" depart="160.61"/>
    <vehicle id="veh107" type="passenger" route="r5" depart="162.12"/>
    <vehicle id="veh108" type="passenger" route="r7" depart="163.64"/>
    <vehicle id="veh109" type="passenger" route="r3" depart="165.15"/>
    <vehicle id="veh110" type="passenger" route="r4" depart="166.67"/>
    <vehicle id="veh111" type="passenger" route="r6" depart="168.18"/>
    <vehicle id="veh112" type="passenger" route="r3" depart="169.7"/>
    <vehicle id="veh113" type="passenger" route="r6" depart="171.21"/>
    <vehicle id="veh114" type="passenger" route="r5" depart="172.73"/>
    <vehicle id="veh115" type="passenger" route="r2" depart="174.24"/>
    <vehicle id="veh116" type="passenger" route="r0" depart="175.76"/>
    <vehicle id="veh117" type="passenger" route="r4" depart="177.27"/>
    <vehicle id="veh118" type="passenger" route="r1" depart="178.79"/>
    <vehicle id="veh119" type="passenger" route="r4" depart="180.3"/>
    <vehicle id="veh120" type="passenger" route="r6" depart="181.82"/>
    <vehicle id="veh121" type="passenger" route="r7" depart="183.33"/>
    <vehicle id="veh122" type="passenger" route="r7" depart="184.85"/>
    <vehicle id="veh123" type="passenger" route="r0" depart="186.36"/>
    <vehicle id="veh124" type="passenger" route="r0" depart="187.88"/>
    <vehicle id="veh125" type="passenger" route="r4" depart="189.39"/>
    <vehicle id="veh126" type="passenger" route="r4" depart="190.91"/>
    <vehicle id="veh127" type="passenger" route="r0" depart="192.42"/>
    <vehicle id="veh128" type="passenger" route="r6" depart="193.94"/>
    <vehicle id="veh129" type="passenger" route="r0" depart="195.45"/>
    <vehicle id="veh130" type="passenger" route="r4" depart="196.97"/>
    <vehicle id="veh131" type="passenger" route="r2" depart="198.48"/>
    <vehicle id="veh132" type="passenger" route="r1" depart="200.0"/>
    <vehicle id="veh133" type="passenger" route="r5" depart="201.52"/>
    <vehicle id="veh134" type="passenger" route="r3" depart="203.03"/>
    <vehicle id="veh135" type="passenger" route="r7" depart="204.55"/>
    <vehicle id="veh136" type="passenger" route="r0" depart="206.06"/>
    <vehicle id="veh137" type="passenger" route="r0" depart="207.58"/>
    <vehicle id="veh138" type="passenger" route="r4" depart="209.09"/>
    <vehicle id="veh139" type="passenger" route="r2" depart="210.61"/>
    <vehicle id="veh140" type="passenger" route="r3" depart="212.12"/>
    <vehicle id="veh141" type="passenger" route="r6" depart="213.64"/>
    <vehicle id="veh142" type="passenger" route="r7" depart="215.15"/>
    <vehicle id="veh143" type="passenger" route="r0" depart="216.67"/>
    <vehicle id="veh144" type="passenger" route="r5" depart="218.18"/>
    <vehicle id="veh145" type="passenger" route="r3" depart="219.7"/>
    <vehicle id="veh146" type="passenger" route="r1" depart="221.21"/>
    <vehicle id="veh147" type="passenger" route="r6" depart="222.73"/>
    <vehicle id="veh148" type="passenger" route="r4" depart="224.24"/>
    <vehicle id="veh149" type="passenger" route="r5" depart="225.76"/>
    <vehicle id="veh150" type="passenger" route="r0" depart="227.27"/>
    <vehicle id="veh151" type="passenger" route="r1" depart="228.79"/>
    <vehicle id="veh152" type="passenger" route="r5" depart="230.3"/>
    <vehicle id="veh153" type="passenger" route="r4" depart="231.82"/>
    <vehicle id="veh154" type="passenger" route="r0" depart="233.33"/>
    <vehicle id="veh155" type="passenger" route="r1" depart="234.85"/>
    <vehicle id="veh156" type="passenger" route="r0" depart="236.36"/>
    <vehicle id="veh157" type="passenger" route="r5" depart="237.88"/>
    <vehicle id="veh158" type="passenger" route="r2" depart="239.39"/>
    <vehicle id="veh159" type="passenger" route="r7" depart="240.91"/>
    <vehicle id="veh160" type="passenger" route="r7" depart="242.42"/>
    <vehicle id="veh161" type="passenger" route="r1" depart="243.94"/>
    <vehicle id="veh162" type="passenger" route="r7" depart="245.45"/>
    <vehicle id="veh163" type="passenger" route="r4" depart="246.97"/>
    <vehicle id="veh164" type="passenger" route="r2" depart="248.48"/>
    <vehicle id="veh165" type="passenger" route="r4" depart="250.0"/>
    <vehicle id="veh166" type="passenger" route="r6" depart="251.52"/>
    <vehicle id="veh167" type="passenger" route="r3" depart="253.03"/>
    <vehicle id="veh168" type="passenger" route="r2" depart="254.55"/>
    <vehicle id="veh169" type="passenger" route="r4" depart="256.06"/>
    <vehicle id="veh170" type="passenger" route="r3" depart="257.58"/>
    <vehicle id="veh171" type="passenger" route="r1" depart="259.09"/>
    <vehicle id="veh172" type="passenger" route="r6" depart="260.61"/>
    <vehicle id="veh173" type="passenger" route="r0" depart="262.12"/>
    <vehicle id="veh174" type="passenger" route="r6" depart="263.64"/>
    <vehicle id="veh175" type="passenger" route="r1" depart="265.15"/>
    <vehicle id="veh176" type="passenger" route="r2" depart="266.67"/>
    <vehicle id="veh177" type="passenger" route="r7" depart="268.18"/>
    <vehicle id="veh178" type="passenger" route="r6" depart="269.7"/>
    <vehicle id="veh179" type="passenger" route="r7" depart="271.21"/>
    <vehicle id="veh180" type="passenger" route="r5" depart="272.73"/>
    <vehicle id="veh181" type="passenger" route="r7" depart="274.24"/>
    <vehicle id="veh182" type="passenger" route="r1" depart="275.76"/>
    <vehicle id="veh183" type="passenger" route="r0" depart="277.27"/>
    <vehicle id="veh184" type="passenger" route="r2" depart="278.79"/>
    <vehicle id="veh185" type="passenger" route="r0" depart="280.3"/>
    <vehicle id="veh186" type="passenger" route="r2" depart="281.82"/>
    <vehicle id="veh187" type="passenger" route="r4" depart="283.33"/>
    <vehicle id="veh188" type="passenger" route="r5" depart="284.85"/>
    <vehicle id="veh189" type="passenger" route="r7" depart="286.36"/>
    <vehicle id="veh190" type="passenger" route="r1" depart="287.88"/>
    <vehicle id="veh191" type="passenger" route="r4" depart="289.39"/>
    <vehicle id="veh192" type="passenger" route="r6" depart="290.91"/>
    <vehicle id="veh193" type="passenger" route="r6" depart="292.42"/>
    <vehicle id="veh194" type="passenger" route="r2" depart="293.94"/>
    <vehicle id="veh195" type="passenger" route="r3" depart="295.45"/>
    <vehicle id="veh196" type="passenger" route="r2" depart="296.97"/>
    <vehicle id="veh197" type="passenger" route="r5" depart="298.48"/>
    <vehicle id="veh198" type="passenger" route="r5" depart="300.0"/>
    <vehicle id="veh199" type="passenger" route="r3" depart="301.52"/>
    <vehicle id="veh200" type="passenger" route="r3" depart="303.03"/>
    <vehicle id="veh201" type="passenger" route="r2" depart="304.55"/>
    <vehicle id="veh202" type="passenger" route="r2" depart="306.06"/>
    <vehicle id="veh203" type="passenger" route="r4" depart="307.58"/>
    <vehicle id="veh204" type="passenger" route="r6" depart="309.09"/>
    <vehicle id="veh205" type="passenger" route="r6" depart="310.61"/>
    <vehicle id="veh206" type="passenger" route="r2" depart="312.12"/>
    <vehicle id="veh207" type="passenger" route="r0" depart="313.64"/>
    <vehicle id="veh208" type="passenger" route="r5" depart="315.15"/>
    <vehicle id="veh209" type="passenger" route="r5" depart="316.67"/>
    <vehicle id="veh210" type="passenger" route="r5" depart="318.18"/>
    <vehicle id="veh211" type="passenger" route="r3" depart="319.7"/>
    <vehicle id="veh212" type="passenger" route="r7" depart="321.21"/>
    <vehicle id="veh213" type="passenger" route="r0" depart="322.73"/>
    <vehicle id="veh214" type="passenger" route="r7" depart="324.24"/>
    <vehicle id="veh215" type="passenger" route="r2" depart="325.76"/>
    <vehicle id="veh216" type="passenger" route="r2" depart="327.27"/>
    <vehicle id="veh217" type="passenger" route="r4" depart="328.79"/>
    <vehicle id="veh218" type="passenger" route="r1" depart="330.3"/>
    <vehicle id="veh219" type="passenger" route="r2" depart="331.82"/>
    <vehicle id="veh220" type="passenger" route="r7" depart="333.33"/>
    <vehicle id="veh221" type="passenger" route="r1" depart="334.85"/>
    <vehicle id="veh222" type="passenger" route="r7" depart="336.36"/>
    <vehicle id="veh223" type="passenger" route="r5" depart="337.88"/>
    <vehicle id="veh224" type="emergency" route="r5" depart="339.39"/>
    <vehicle id="veh225" type="passenger" route="r0" depart="340.91"/>
    <vehicle id="veh226" type="passenger" route="r2" depart="342.42"/>
    <vehicle id="veh227" type="passenger" route="r5" depart="343.94"/>
    <vehicle id="veh228" type="passenger" route="r6" depart="345.45"/>
    <vehicle id="veh229" type="passenger" route="r2" depart="346.97"/>
    <vehicle id="veh230" type="passenger" route="r0" depart="348.48"/>
    <vehicle id="veh231" type="passenger" route="r1" depart="350.0"/>
    <vehicle id="veh232" type="passenger" route="r6" depart="351.52"/>
    <vehicle id="veh233" type="passenger" route="r3" depart="353.03"/>
    <vehicle id="veh234" type="passenger" route="r5" depart="354.55"/>
    <vehicle id="veh235" type="passenger" route="r4" depart="356.06"/>
    <vehicle id="veh236" type="passenger" route="r1" depart="357.58"/>
    <vehicle id="veh237" type="passenger" route="r2" depart="359.09"/>
    <vehicle id="veh238" type="passenger" route="r6" depart="360.61"/>
    <vehicle id="veh239" type="passenger" route="r5" depart="362.12"/>
    <vehicle id="veh240" type="passenger" route="r5" depart="363.64"/>
    <vehicle id="veh241" type="passenger" route="r2" depart="365.15"/>
    <vehicle id="veh242" type="passenger" route="r2" depart="366.67"/>
    <vehicle id="veh243" type="passenger" route="r5" depart="368.18"/>
    <vehicle id="veh244" type="emergency" route="r1" depart="369.7"/>
    <vehicle id="veh245" type="passenger" route="r5" depart="371.21"/>
    <vehicle id="veh246" type="passenger" route="r0" depart="372.73"/>
    <vehicle id="veh247" type="passenger" route="r4" depart="374.24"/>
    <vehicle id="veh248" type="passenger" route="r6" depart="375.76"/>
    <vehicle id="veh249" type="passenger" route="r1" depart="377.27"/>
    <vehicle id="veh250" type="passenger" route="r7" depart="378.79"/>
    <vehicle id="veh251" type="passenger" route="r1" depart="380.3"/>
    <vehicle id="veh252" type="passenger" route="r0" depart="381.82"/>
    <vehicle id="veh253" type="passenger" route="r1" depart="383.33"/>
    <vehicle id="veh254" type="passenger" route="r4" depart="384.85"/>
    <vehicle id="veh255" type="passenger" route="r0" depart="386.36"/>
    <vehicle id="veh256" type="emergency" route="r6" depart="387.88"/>
    <vehicle id="veh257" type="passenger" route="r4" depart="389.39"/>
    <vehicle id="veh258" type="passenger" route="r5" depart="390.91"/>
    <vehicle id="veh259" type="passenger" route="r6" depart="392.42"/>
    <vehicle id="veh260" type="passenger" route="r1" depart="393.94"/>
    <vehicle id="veh261" type="passenger" route="r1" depart="395.45"/>
    <vehicle id="veh262" type="passenger" route="r0" depart="396.97"/>
    <vehicle id="veh263" type="passenger" route="r2" depart="398.48"/>
    <vehicle id="veh264" type="passenger" route="r2" depart="400.0"/>
    <vehicle id="veh265" type="passenger" route="r0" depart="401.52"/>
    <vehicle id="veh266" type="passenger" route="r7" depart="403.03"/>
    <vehicle id="veh267" type="passenger" route="r6" depart="404.55"/>
    <vehicle id="veh268" type="passenger" route="r5" depart="406.06"/>
    <vehicle id="veh269" type="passenger" route="r7" depart="407.58"/>
    <vehicle id="veh270" type="passenger" route="r4" depart="409.09"/>
    <vehicle id="veh271" type="passenger" route="r4" depart="410.61"/>
    <vehicle id="veh272" type="passenger" route="r3" depart="412.12"/>
    <vehicle id="veh273" type="passenger" route="r2" depart="413.64"/>
    <vehicle id="veh274" type="passenger" route="r6" depart="415.15"/>
    <vehicle id="veh275" type="passenger" route="r5" depart="416.67"/>
    <vehicle id="veh276" type="passenger" route="r0" depart="418.18"/>
    <vehicle id="veh277" type="passenger" route="r5" depart="419.7"/>
    <vehicle id="veh278" type="passenger" route="r3" depart="421.21"/>
    <vehicle id="veh279" type="passenger" route="r7" depart="422.73"/>
    <vehicle id="veh280" type="passenger" route="r3" depart="424.24"/>
    <vehicle id="veh281" type="passenger" route="r1" depart="425.76"/>
    <vehicle id="veh282" type="passenger" route="r7" depart="427.27"/>
    <vehicle id="veh283" type="passenger" route="r3" depart="428.79"/>
    <vehicle id="veh284" type="passenger" route="r1" depart="430.3"/>
    <vehicle id="veh285" type="passenger" route="r6" depart="431.82"/>
    <vehicle id="veh286" type="passenger" route="r3" depart="433.33"/>
    <vehicle id="veh287" type="passenger" route="r5" depart="434.85"/>
    <vehicle id="veh288" type="passenger" route="r1" depart="436.36"/>
    <vehicle id="veh289" type="passenger" route="r2" depart="437.88"/>
    <vehicle id="veh290" type="passenger" route="r7" depart="439.39"/>
    <vehicle id="veh291" type="passenger" route="r6" depart="440.91"/>
    <vehicle id="veh292" type="passenger" route="r2" depart="442.42"/>
    <vehicle id="veh293" type="passenger" route="r2" depart="443.94"/>
    <vehicle id="veh294" type="passenger" route="r1" depart="445.45"/>
    <vehicle id="veh295" type="passenger" route="r4" depart="446.97"/>
    <vehicle id="veh296" type="passenger" route="r5" depart="448.48"/>
    <vehicle id="veh297" type="passenger" route="r3" depart="450.0"/>
    <vehicle id="veh298" type="passenger" route="r3" depart="451.52"/>
    <vehicle id="veh299" type="passenger" route="r3" depart="453.03"/>
    <vehicle id="veh300" type="passenger" route="r3" depart="454.55"/>
    <vehicle id="veh301" type="passenger" route="r0" depart="456.06"/>
    <vehicle id="veh302" type="passenger" route="r0" depart="457.58"/>
    <vehicle id="veh303" type="passenger" route="r6" depart="459.09"/>
    <vehicle id="veh304" type="passenger" route="r0" depart="460.61"/>
    <vehicle id="veh305" type="passenger" route="r4" depart="462.12"/>
    <vehicle id="veh306" type="passenger" route="r1" depart="463.64"/>
    <vehicle id="veh307" type="passenger" route="r2" depart="465.15"/>
    <vehicle id="veh308" type="passenger" route="r5" depart="466.67"/>
    <vehicle id="veh309" type="passenger" route="r5" depart="468.18"/>
    <vehicle id="veh310" type="passenger" route="r5" depart="469.7"/>
    <vehicle id="veh311" type="passenger" route="r2" depart="471.21"/>
    <vehicle id="veh312" type="passenger" route="r1" depart="472.73"/>
    <vehicle id="veh313" type="passenger" route="r7" depart="474.24"/>
    <vehicle id="veh314" type="passenger" route="r3" depart="475.76"/>
    <vehicle id="veh315" type="passenger" route="r4" depart="477.27"/>
    <vehicle id="veh316" type="passenger" route="r2" depart="478.79"/>
    <vehicle id="veh317" type="passenger" route="r5" depart="480.3"/>
    <vehicle id="veh318" type="passenger" route="r2" depart="481.82"/>
    <vehicle id="veh319" type="passenger" route="r5" depart="483.33"/>
    <vehicle id="veh320" type="passenger" route="r7" depart="484.85"/>
    <vehicle id="veh321" type="passenger" route="r1" depart="486.36"/>
    <vehicle id="veh322" type="passenger" route="r6" depart="487.88"/>
    <vehicle id="veh323" type="passenger" route="r7" depart="489.39"/>
    <vehicle id="veh324" type="passenger" route="r7" depart="490.91"/>
    <vehicle id="veh325" type="passenger" route="r0" depart="492.42"/>
    <vehicle id="veh326" type="passenger" route="r3" depart="493.94"/>
    <vehicle id="veh327" type="passenger" route="r1" depart="495.45"/>
    <vehicle id="veh328" type="passenger" route="r7" depart="496.97"/>
    <vehicle id="veh329" type="passenger" route="r5" depart="498.48"/>
    <vehicle id="veh330" type="passenger" route="r2" depart="500.0"/>
    <vehicle id="veh331" type="passenger" route="r5" depart="501.52"/>
    <vehicle id="veh332" type="passenger" route="r1" depart="503.03"/>
    <vehicle id="veh333" type="passenger" route="r7" depart="504.55"/>
    <vehicle id="veh334" type="passenger" route="r4" depart="506.06"/>
    <vehicle id="veh335" type="passenger" route="r4" depart="507.58"/>
    <vehicle id="veh336" type="passenger" route="r3" depart="509.09"/>
    <vehicle id="veh337" type="passenger" route="r3" depart="510.61"/>
    <vehicle id="veh338" type="passenger" route="r5" depart="512.12"/>
    <vehicle id="veh339" type="passenger" route="r6" depart="513.64"/>
    <vehicle id="veh340" type="passenger" route="r3" depart="515.15"/>
    <vehicle id="veh341" type="passenger" route="r5" depart="516.67"/>
    <vehicle id="veh342" type="passenger" route="r2" depart="518.18"/>
    <vehicle id="veh343" type="passenger" route="r2" depart="519.7"/>
    <vehicle id="veh344" type="passenger" route="r7" depart="521.21"/>
    <vehicle id="veh345" type="passenger" route="r4" depart="522.73"/>
    <vehicle id="veh346" type="passenger" route="r3" depart="524.24"/>
    <vehicle id="veh347" type="passenger" route="r2" depart="525.76"/>
    <vehicle id="veh348" type="passenger" route="r0" depart="527.27"/>
    <vehicle id="veh349" type="passenger" route="r6" depart="528.79"/>
    <vehicle id="veh350" type="passenger" route="r4" depart="530.3"/>
    <vehicle id="veh351" type="passenger" route="r1" depart="531.82"/>
    <vehicle id="veh352" type="passenger" route="r4" depart="533.33"/>
    <vehicle id="veh353" type="passenger" route="r5" depart="534.85"/>
    <vehicle id="veh354" type="passenger" route="r2" depart="536.36"/>
    <vehicle id="veh355" type="passenger" route="r6" depart="537.88"/>
    <vehicle id="veh356" type="passenger" route="r3" depart="539.39"/>
    <vehicle id="veh357" type="passenger" route="r5" depart="540.91"/>
    <vehicle id="veh358" type="passenger" route="r6" depart="542.42"/>
    <vehicle id="veh359" type="passenger" route="r5" depart="543.94"/>
    <vehicle id="veh360" type="passenger" route="r7" depart="545.45"/>
    <vehicle id="veh361" type="passenger" route="r1" depart="546.97"/>
    <vehicle id="veh362" type="passenger" route="r0" depart="548.48"/>
    <vehicle id="veh363" type="passenger" route="r5" depart="550.0"/>
    <vehicle id="veh364" type="passenger" route="r6" depart="551.52"/>
    <vehicle id="veh365" type="passenger" route="r7" depart="553.03"/>
    <vehicle id="veh366" type="passenger" route="r0" depart="554.55"/>
    <vehicle id="veh367" type="passenger" route="r0" depart="556.06"/>
    <vehicle id="veh368" type="passenger" route="r6" depart="557.58"/>
    <vehicle id="veh369" type="passenger" route="r2" depart="559.09"/>
    <vehicle id="veh370" type="passenger" route="r2" depart="560.61"/>
    <vehicle id="veh371" type="passenger" route="r6" depart="562.12"/>
    <vehicle id="veh372" type="passenger" route="r5" depart="563.64"/>
    <vehicle id="veh373" type="passenger" route="r6" depart="565.15"/>
    <vehicle id="veh374" type="passenger" route="r4" depart="566.67"/>
    <vehicle id="veh375" type="passenger" route="r0" depart="568.18"/>
    <vehicle id="veh376" type="passenger" route="r1" depart="569.7"/>
    <vehicle id="veh377" type="passenger" route="r2" depart="571.21"/>
    <vehicle id="veh378" type="passenger" route="r2" depart="572.73"/>
    <vehicle id="veh379" type="emergency" route="r7" depart="574.24"/>
    <vehicle id="veh380" type="passenger" route="r7" depart="575.76"/>
    <vehicle id="veh381" type="passenger" route="r0" depart="577.27"/>
    <vehicle id="veh382" type="passenger" route="r3" depart="578.79"/>
    <vehicle id="veh383" type="passenger" route="r3" depart="580.3"/>
    <vehicle id="veh384" type="passenger" route="r7" depart="581.82"/>
    <vehicle id="veh385" type="passenger" route="r3" depart="583.33"/>
    <vehicle id="veh386" type="passenger" route="r4" depart="584.85"/>
    <vehicle id="veh387" type="passenger" route="r4" depart="586.36"/>
    <vehicle id="veh388" type="passenger" route="r7" depart="587.88"/>
    <vehicle id="veh389" type="passenger" route="r7" depart="589.39"/>
    <vehicle id="veh390" type="passenger" route="r5" depart="590.91"/>
    <vehicle id="veh391" type="passenger" route="r1" depart="592.42"/>
    <vehicle id="veh392" type="passenger" route="r3" depart="593.94"/>
    <vehicle id="veh393" type="passenger" route="r3" depart="595.45"/>
    <vehicle id="veh394" type="passenger" route="r6" depart="596.97"/>
    <vehicle id="veh395" type="passenger" route="r4" depart="598.48"/>
    <vehicle id="veh396" type="passenger" route="r0" depart="600.0"/>
    <vehicle id="veh397" type="passenger" route="r3" depart="601.52"/>
    <vehicle id="veh398" type="passenger" route="r7" depart="603.03"/>
    <vehicle id="veh399" type="passenger" route="r7" depart="604.55"/>
    <vehicle id="veh400" type="passenger" route="r6" depart="606.06"/>
    <vehicle id="veh401" type="passenger" route="r2" depart="607.58"/>
    <vehicle id="veh402" type="passenger" route="r5" depart="609.09"/>
    <vehicle id="veh403" type="passenger" route="r2" depart="610.61"/>
    <vehicle id="veh404" type="passenger" route="r4" depart="612.12"/>
    <vehicle id="veh405" type="passenger" route="r0" depart="613.64"/>
    <vehicle id="veh406" type="emergency" route="r2" depart="615.15"/>
    <vehicle id="veh407" type="passenger" route="r2" depart="616.67"/>
    <vehicle id="veh408" type="passenger" route="r1" depart="618.18"/>
    <vehicle id="veh409" type="passenger" route="r1" depart="619.7"/>
    <vehicle id="veh410" type="passenger" route="r7" depart="621.21"/>
    <vehicle id="veh411" type="emergency" route="r4" depart="622.73"/>
    <vehicle id="veh412" type="passenger" route="r3" depart="624.24"/>
    <vehicle id="veh413" type="passenger" route="r1" depart="625.76"/>
    <vehicle id="veh414" type="passenger" route="r7" depart="627.27"/>
    <vehicle id="veh415" type="passenger" route="r6" depart="628.79"/>