<?xml version="1.0" encoding="UTF-8"?>

<!-- generated on 2026-04-12T11:25:43.087819+05:30 by Eclipse SUMO netconvert 1.26.0
<netconvertConfiguration xmlns:xsi="http://www.w3.org/2001/XMLSchema-instance" xsi:noNamespaceSchemaLocation="http://sumo.dlr.de/xsd/netconvertConfiguration.xsd">

    <input>
        <node-files value="C:\Users\santhosh\OneDrive\Desktop\trafiic pro\web_runs\20260412_112542_724892\area.nod.xml"/>
        <edge-files value="C:\Users\santhosh\OneDrive\Desktop\trafiic pro\web_runs\20260412_112542_724892\area.edg.xml"/>
    </input>

    <output>
        <output-file value="C:\Users\santhosh\OneDrive\Desktop\trafiic pro\web_runs\20260412_112542_724892\area.net.xml"/>
    </output>

    <building_defaults>
        <default.lanewidth value="1.8"/>
    </building_defaults>

    <junctions>
        <junctions.corner-detail value="0"/>
    </junctions>

</netconvertConfiguration>
-->

<net version="1.20" limitTurnSpeed="5.50" xmlns:xsi="http://www.w3.org/2001/XMLSchema-instance" xsi:noNamespaceSchemaLocation="http://sumo.dlr.de/xsd/net_file.xsd">

    <location netOffset="-180.00,-186.29" convBoundary="0.00,0.00,4096.65,1313.71" origBoundary="180.00,186.29,4276.65,1500.00" projParameter="!"/>

    <edge id=":P0_0" function="internal">
        <lane id=":P0_0_0" index="0" speed="13.90" length="15.73" width="1.80" shape="1381.28,703.30 1377.42,703.33 1373.42,703.46 1369.42,703.68 1365.57,703.98"/>
    </edge>
    <edge id=":P0_1" function="internal">
        <lane id=":P0_1_0" index="0" speed="13.90" length="15.73" width="1.80" shape="1381.28,703.30 1377.42,703.33 1373.42,703.46 1369.42,703.68 1365.57,703.98"/>
    </edge>
    <edge id=":P0_2" function="internal">
        <lane id=":P0_2_0" index="0" speed="13.90" length="26.98" width="1.80" shape="1381.28,703.30 1384.72,713.21 1391.17,728.38"/>
    </edge>
    <edge id=":P0_3" function="internal">
        <lane id=":P0_3_0" index="0" speed="2.74" length="2.21" width="1.80" shape="1381.28,703.30 1380.61,702.84 1380.38,702.39 1380.61,701.94 1380.94,701.73"/>
    </edge>
    <edge id=":P0_16" function="internal">
        <lane id=":P0_16_0" index="0" speed="13.90" length="34.08" width="1.80" shape="1391.17,728.38 1393.75,734.46 1402.32,754.25 1404.36,759.80"/>
    </edge>
    <edge id=":P0_17" function="internal">
        <lane id=":P0_17_0" index="0" speed="2.74" length="0.41" width="1.80" shape="1380.94,701.73 1381.29,701.50"/>
    </edge>
    <edge id=":P0_4" function="internal">
        <lane id=":P0_4_0" index="0" speed="13.90" length="70.06" width="1.80" shape="1365.41,702.19 1370.28,705.56 1378.39,716.29 1389.75,734.37 1404.36,759.80"/>
    </edge>
    <edge id=":P0_5" function="internal">
        <lane id=":P0_5_0" index="0" speed="13.90" length="15.90" width="1.80" shape="1365.41,702.19 1369.29,701.88 1373.34,701.66 1377.40,701.53 1381.29,701.50"/>
    </edge>
    <edge id=":P0_6" function="internal">
        <lane id=":P0_6_0" index="0" speed="2.43" length="0.91" width="1.80" shape="1365.41,702.19 1365.49,703.10"/>
    </edge>
    <edge id=":P0_7" function="internal">
        <lane id=":P0_7_0" index="0" speed="2.74" length="2.27" width="1.80" shape="1365.41,702.19 1366.12,702.57 1366.39,703.00 1366.20,703.47 1365.85,703.75"/>
    </edge>
    <edge id=":P0_18" function="internal">
        <lane id=":P0_18_0" index="0" speed="2.43" length="0.89" width="1.80" shape="1365.49,703.10 1365.57,703.98"/>
    </edge>
    <edge id=":P0_19" function="internal">
        <lane id=":P0_19_0" index="0" speed="2.74" length="0.36" width="1.80" shape="1365.85,703.75 1365.57,703.98"/>
    </edge>
    <edge id=":P0_8" function="internal">
        <lane id=":P0_8_0" index="0" speed="13.90" length="70.06" width="1.80" shape="1365.41,702.19 1370.28,705.56 1378.39,716.29 1389.75,734.37 1404.36,759.80"/>
    </edge>
    <edge id=":P0_9" function="internal">
        <lane id=":P0_9_0" index="0" speed="13.90" length="15.90" width="1.80" shape="1365.41,702.19 1369.29,701.88 1373.34,701.66 1377.40,701.53 1381.29,701.50"/>
    </edge>
    <edge id=":P0_10" function="internal">
        <lane id=":P0_10_0" index="0" speed="2.43" length="1.49" width="1.80" shape="1365.41,702.19 1365.54,703.67"/>
    </edge>
    <edge id=":P0_11" function="internal">
        <lane id=":P0_11_0" index="0" speed="2.74" length="1.31" width="1.80" shape="1365.41,702.19 1366.12,702.57 1366.39,703.00"/>
    </edge>
    <edge id=":P0_20" function="internal">
        <lane id=":P0_20_0" index="0" speed="2.43" length="0.31" width="1.80" shape="1365.54,703.67 1365.57,703.98"/>
    </edge>
    <edge id=":P0_21" function="internal">
        <lane id=":P0_21_0" index="0" speed="2.74" length="1.31" width="1.80" shape="1366.39,703.00 1366.20,703.47 1365.57,703.98"/>
    </edge>
    <edge id=":P0_12" function="internal">
        <lane id=":P0_12_0" index="0" speed="13.90" length="68.19" width="1.80" shape="1405.93,758.92 1401.70,753.59 1388.05,734.30 1373.25,713.59 1365.57,703.98"/>
    </edge>
    <edge id=":P0_13" function="internal">
        <lane id=":P0_13_0" index="0" speed="13.90" length="68.19" width="1.80" shape="1405.93,758.92 1401.70,753.59 1388.05,734.30 1373.25,713.59 1365.57,703.98"/>
    </edge>
    <edge id=":P0_14" function="internal">
        <lane id=":P0_14_0" index="0" speed="13.90" length="63.64" width="1.80" shape="1405.93,758.92 1392.38,733.79 1383.75,715.84 1380.05,705.07 1381.29,701.50"/>
    </edge>
    <edge id=":P0_15" function="internal">
        <lane id=":P0_15_0" index="0" speed="2.74" length="0.28" width="1.80" shape="1405.93,758.92 1405.91,759.20"/>
    </edge>
    <edge id=":P0_22" function="internal">
        <lane id=":P0_22_0" index="0" speed="2.74" length="2.35" width="1.80" shape="1405.91,759.20 1405.87,759.73 1405.58,760.15 1405.08,760.17 1404.36,759.80"/>
    </edge>
    <edge id=":P1_0" function="internal">
        <lane id=":P1_0_0" index="0" speed="11.08" length="13.66" width="1.80" shape="2190.85,941.68 2186.95,942.23 2183.65,943.33 2180.95,945.00 2178.85,947.24"/>
    </edge>
    <edge id=":P1_1" function="internal">
        <lane id=":P1_1_0" index="0" speed="13.90" length="15.61" width="1.80" shape="2190.85,941.68 2187.01,941.81 2183.04,941.70 2179.11,941.28 2175.35,940.52"/>
    </edge>
    <edge id=":P1_2" function="internal">
        <lane id=":P1_2_0" index="0" speed="6.07" length="6.43" width="1.80" shape="2190.85,941.68 2186.43,941.50 2184.73,940.43"/>
    </edge>
    <edge id=":P1_3" function="internal">
        <lane id=":P1_3_0" index="0" speed="2.74" length="2.30" width="1.80" shape="2190.85,941.68 2190.15,941.27 2189.90,940.84 2190.10,940.37 2190.48,940.08"/>
    </edge>
    <edge id=":P1_16" function="internal">
        <lane id=":P1_16_0" index="0" speed="6.07" length="7.15" width="1.80" shape="2184.73,940.43 2184.43,940.24 2184.84,937.91 2187.67,934.51"/>
    </edge>
    <edge id=":P1_17" function="internal">
        <lane id=":P1_17_0" index="0" speed="2.74" length="0.33" width="1.80" shape="2190.48,940.08 2190.74,939.88"/>
    </edge>
    <edge id=":P1_4" function="internal">
        <lane id=":P1_4_0" index="0" speed="4.70" length="7.74" width="1.80" shape="2188.92,935.80 2187.31,937.74 2187.08,939.06 2188.22,939.78 2190.74,939.88"/>
    </edge>
    <edge id=":P1_5" function="internal">
        <lane id=":P1_5_0" index="0" speed="13.90" length="15.26" width="1.80" shape="2188.92,935.80 2186.25,938.49 2183.64,941.30 2181.15,944.22 2178.85,947.24"/>
    </edge>
    <edge id=":P1_6" function="internal">
        <lane id=":P1_6_0" index="0" speed="10.48" length="7.99" width="1.80" shape="2188.92,935.80 2185.56,938.55 2182.31,940.19"/>
    </edge>
    <edge id=":P1_7" function="internal">
        <lane id=":P1_7_0" index="0" speed="2.74" length="2.21" width="1.80" shape="2188.92,935.80 2188.13,935.95 2187.65,935.78 2187.50,935.30 2187.58,934.92"/>
    </edge>
    <edge id=":P1_18" function="internal">
        <lane id=":P1_18_0" index="0" speed="10.48" length="7.06" width="1.80" shape="2182.31,940.19 2182.18,940.25 2178.77,940.91 2175.35,940.52"/>
    </edge>
    <edge id=":P1_19" function="internal">
        <lane id=":P1_19_0" index="0" speed="2.74" length="0.42" width="1.80" shape="2187.58,934.92 2187.67,934.51"/>
    </edge>
    <edge id=":P1_8" function="internal">
        <lane id=":P1_8_0" index="0" speed="9.83" length="13.19" width="1.80" shape="2175.81,938.78 2178.76,939.10 2181.72,938.49 2184.69,936.96 2187.67,934.51"/>
    </edge>
    <edge id=":P1_9" function="internal">
        <lane id=":P1_9_0" index="0" speed="13.90" length="15.04" width="1.80" shape="2175.81,938.78 2179.48,939.53 2183.21,939.93 2186.98,940.02 2190.74,939.88"/>
    </edge>
    <edge id=":P1_10" function="internal">
        <lane id=":P1_10_0" index="0" speed="6.33" length="8.63" width="1.80" shape="2175.81,938.78 2178.86,940.07 2180.39,941.91 2180.39,944.30 2180.14,944.77"/>
    </edge>
    <edge id=":P1_11" function="internal">
        <lane id=":P1_11_0" index="0" speed="2.74" length="2.12" width="1.80" shape="2175.81,938.78 2176.34,939.38 2176.45,939.88 2176.11,940.25 2175.83,940.35"/>
    </edge>
    <edge id=":P1_20" function="internal">
        <lane id=":P1_20_0" index="0" speed="6.33" length="2.79" width="1.80" shape="2180.14,944.77 2178.85,947.24"/>
    </edge>
    <edge id=":P1_21" function="internal">
        <lane id=":P1_21_0" index="0" speed="2.74" length="0.51" width="1.80" shape="2175.83,940.35 2175.35,940.52"/>
    </edge>
    <edge id=":P1_12" function="internal">
        <lane id=":P1_12_0" index="0" speed="5.26" length="7.65" width="1.80" shape="2177.39,946.19 2178.42,944.22 2178.42,942.61 2177.39,941.38 2175.35,940.52"/>
    </edge>
    <edge id=":P1_13" function="internal">
        <lane id=":P1_13_0" index="0" speed="13.90" length="15.58" width="1.80" shape="2177.39,946.19 2179.72,943.14 2182.28,940.13 2184.96,937.24 2187.67,934.51"/>
    </edge>
    <edge id=":P1_14" function="internal">
        <lane id=":P1_14_0" index="0" speed="11.69" length="7.56" width="1.80" shape="2177.39,946.19 2179.76,943.65 2182.77,941.75 2183.27,941.58"/>
    </edge>
    <edge id=":P1_15" function="internal">
        <lane id=":P1_15_0" index="0" speed="2.74" length="2.31" width="1.80" shape="2177.39,946.19 2178.15,945.90 2178.64,945.98 2178.88,946.43 2178.86,946.91"/>
    </edge>
    <edge id=":P1_22" function="internal">
        <lane id=":P1_22_0" index="0" speed="11.69" length="7.70" width="1.80" shape="2183.27,941.58 2186.43,940.50 2190.74,939.88"/>
    </edge>
    <edge id=":P1_23" function="internal">
        <lane id=":P1_23_0" index="0" speed="2.74" length="0.32" width="1.80" shape="2178.86,946.91 2178.85,947.24"/>
    </edge>
    <edge id=":P2_0" function="internal">
        <lane id=":P2_0_0" index="0" speed="12.60" length="12.63" width="1.80" shape="3883.86,1133.35 3881.15,1131.25 3878.62,1129.68 3875.89,1128.73 3872.57,1128.48"/>
    </edge>
    <edge id=":P2_1" function="internal">
        <lane id=":P2_1_0" index="0" speed="9.43" length="14.45" width="1.80" shape="3883.86,1133.35 3880.90,1130.45 3879.08,1127.39 3878.39,1124.15 3878.85,1120.74"/>
    </edge>
    <edge id=":P2_2" function="internal">
        <lane id=":P2_2_0" index="0" speed="6.06" length="6.87" width="1.80" shape="3883.86,1133.35 3880.89,1130.39 3880.27,1128.12 3880.51,1127.90"/>
    </edge>
    <edge id=":P2_3" function="internal">
        <lane id=":P2_3_0" index="0" speed="2.74" length="2.44" width="1.80" shape="3883.86,1133.35 3883.61,1132.58 3883.72,1132.09 3884.18,1131.87 3884.79,1131.93"/>
    </edge>
    <edge id=":P2_16" function="internal">
        <lane id=":P2_16_0" index="0" speed="6.06" length="6.23" width="1.80" shape="3880.51,1127.90 3882.02,1126.54 3886.12,1125.66"/>
    </edge>
    <edge id=":P2_17" function="internal">
        <lane id=":P2_17_0" index="0" speed="2.74" length="0.19" width="1.80" shape="3884.79,1131.93 3884.98,1131.94"/>
    </edge>
    <edge id=":P2_4" function="internal">
        <lane id=":P2_4_0" index="0" speed="4.74" length="7.66" width="1.80" shape="3886.31,1127.45 3883.91,1127.96 3882.89,1128.88 3883.25,1130.21 3884.98,1131.94"/>
    </edge>
    <edge id=":P2_5" function="internal">
        <lane id=":P2_5_0" index="0" speed="13.90" length="13.77" width="1.80" shape="3886.31,1127.45 3872.57,1128.48"/>
    </edge>
    <edge id=":P2_6" function="internal">
        <lane id=":P2_6_0" index="0" speed="6.63" length="6.67" width="1.80" shape="3886.31,1127.45 3882.20,1127.40 3879.85,1126.38"/>
    </edge>
    <edge id=":P2_7" function="internal">
        <lane id=":P2_7_0" index="0" speed="2.74" length="2.30" width="1.80" shape="3886.31,1127.45 3885.59,1127.07 3885.32,1126.64 3885.50,1126.17 3885.87,1125.87"/>
    </edge>
    <edge id=":P2_18" function="internal">
        <lane id=":P2_18_0" index="0" speed="6.63" length="6.09" width="1.80" shape="3879.85,1126.38 3879.59,1126.26 3878.47,1124.05 3878.85,1120.74"/>
    </edge>
    <edge id=":P2_19" function="internal">
        <lane id=":P2_19_0" index="0" speed="2.74" length="0.33" width="1.80" shape="3885.87,1125.87 3886.12,1125.66"/>
    </edge>
    <edge id=":P2_8" function="internal">
        <lane id=":P2_8_0" index="0" speed="5.62" length="8.95" width="1.80" shape="3880.57,1121.25 3880.36,1123.44 3881.21,1124.91 3883.14,1125.65 3886.12,1125.66"/>
    </edge>
    <edge id=":P2_9" function="internal">
        <lane id=":P2_9_0" index="0" speed="8.72" length="12.32" width="1.80" shape="3880.57,1121.25 3880.21,1124.10 3880.83,1126.83 3882.42,1129.45 3884.98,1131.94"/>
    </edge>
    <edge id=":P2_10" function="internal">
        <lane id=":P2_10_0" index="0" speed="8.17" length="8.19" width="1.80" shape="3880.57,1121.25 3879.30,1124.34 3877.55,1126.57 3875.83,1127.62"/>
    </edge>
    <edge id=":P2_11" function="internal">
        <lane id=":P2_11_0" index="0" speed="2.74" length="0.81" width="1.80" shape="3880.57,1121.25 3879.95,1121.77"/>
    </edge>
    <edge id=":P2_20" function="internal">
        <lane id=":P2_20_0" index="0" speed="8.17" length="3.41" width="1.80" shape="3875.83,1127.62 3875.30,1127.95 3872.57,1128.48"/>
    </edge>
    <edge id=":P2_21" function="internal">
        <lane id=":P2_21_0" index="0" speed="2.74" length="1.82" width="1.80" shape="3879.95,1121.77 3879.46,1121.86 3879.09,1121.52 3878.85,1120.74"/>
    </edge>
    <edge id=":P2_12" function="internal">
        <lane id=":P2_12_0" index="0" speed="7.36" length="9.33" width="1.80" shape="3872.51,1126.68 3874.65,1126.25 3876.42,1125.12 3877.82,1123.28 3878.85,1120.74"/>
    </edge>
    <edge id=":P2_13" function="internal">
        <lane id=":P2_13_0" index="0" speed="13.90" length="13.65" width="1.80" shape="3872.51,1126.68 3886.12,1125.66"/>
    </edge>
    <edge id=":P2_14" function="internal">
        <lane id=":P2_14_0" index="0" speed="13.18" length="6.56" width="1.80" shape="3872.51,1126.68 3876.02,1126.99 3878.89,1127.99"/>
    </edge>
    <edge id=":P2_15" function="internal">
        <lane id=":P2_15_0" index="0" speed="2.74" length="2.16" width="1.80" shape="3872.51,1126.68 3873.20,1127.10 3873.44,1127.55 3873.23,1128.00 3872.95,1128.20"/>
    </edge>
    <edge id=":P2_22" function="internal">
        <lane id=":P2_22_0" index="0" speed="13.18" length="7.29" width="1.80" shape="3878.89,1127.99 3879.15,1128.08 3882.09,1129.78 3884.98,1131.94"/>
    </edge>
    <edge id=":P2_23" function="internal">
        <lane id=":P2_23_0" index="0" speed="2.74" length="0.47" width="1.80" shape="3872.95,1128.20 3872.57,1128.48"/>
    </edge>
    <edge id=":P3_0" function="internal">
        <lane id=":P3_0_0" index="0" speed="2.74" length="2.63" width="1.80" shape="0.12,864.42 -0.61,864.07 -0.89,863.65 -0.73,863.18 -0.12,862.64"/>
    </edge>
    <edge id=":P4_0" function="internal">
        <lane id=":P4_0_0" index="0" speed="2.74" length="2.63" width="1.80" shape="4096.56,1104.38 4097.28,1104.76 4097.55,1105.19 4097.37,1105.66 4096.74,1106.18"/>
    </edge>
    <edge id=":P5_0" function="internal">
        <lane id=":P5_0_0" index="0" speed="2.74" length="2.63" width="1.80" shape="0.01,754.55 -0.67,754.11 -0.90,753.66 -0.68,753.21 -0.01,752.75"/>
    </edge>
    <edge id=":P6_0" function="internal">
        <lane id=":P6_0_0" index="0" speed="2.43" length="1.80" width="1.80" shape="1504.76,0.31 1506.46,-0.31"/>
    </edge>
    <edge id=":P6_1" function="internal">
        <lane id=":P6_1_0" index="0" speed="2.43" length="1.80" width="1.80" shape="1504.76,0.31 1506.46,-0.31"/>
    </edge>
    <edge id=":P7_0" function="internal">
        <lane id=":P7_0_0" index="0" speed="2.74" length="2.63" width="1.80" shape="2105.00,1313.42 2104.80,1314.20 2104.44,1314.56 2103.94,1314.49 2103.30,1314.00"/>
    </edge>
    <edge id=":P8_0" function="internal">
        <lane id=":P8_0_0" index="0" speed="2.74" length="2.63" width="1.80" shape="3974.75,1203.51 3975.00,1204.28 3974.89,1204.77 3974.44,1204.98 3973.63,1204.91"/>
    </edge>
    <edge id=":P9_0" function="internal">
        <lane id=":P9_0_0" index="0" speed="2.74" length="2.63" width="1.80" shape="3719.28,876.57 3718.90,875.85 3718.92,875.35 3719.33,875.06 3720.14,874.99"/>
    </edge>

    <edge id="E0_P0_P3" from="P0" to="P3" priority="-1" shape="1373.37,702.36 1213.84,717.01 1062.11,724.86 910.38,718.52 758.65,731.15 606.92,761.13 455.19,780.93 303.46,810.85 151.73,842.28 0.00,863.53">
        <lane id="E0_P0_P3_0" index="0" speed="13.90" length="1378.79" width="1.80" shape="1365.57,703.98 1213.90,717.91 1062.11,725.76 910.40,719.42 758.77,732.04 607.07,762.02 455.34,781.82 303.64,811.73 151.88,843.17 0.12,864.42"/>
    </edge>
    <edge id="E0_P3_P0" from="P3" to="P0" priority="-1" shape="0.00,863.53 151.73,842.28 303.46,810.85 455.19,780.93 606.92,761.13 758.65,731.15 910.38,718.52 1062.11,724.86 1213.84,717.01 1373.37,702.36">
        <lane id="E0_P3_P0_0" index="0" speed="13.90" length="1378.87" width="1.80" shape="-0.12,862.64 151.58,841.39 303.28,809.97 455.04,780.04 606.77,760.24 758.53,730.26 910.36,717.62 1062.11,723.96 1213.78,716.11 1365.41,702.19"/>
    </edge>
    <edge id="E1_P0_P1" from="P0" to="P1" priority="-1" shape="1373.37,702.36 1517.30,703.05 1669.03,720.09 1820.76,782.50 1972.49,885.78 2181.96,941.34">
        <lane id="E1_P0_P1_0" index="0" speed="13.90" length="846.65" width="1.80" shape="1381.29,701.50 1517.35,702.15 1669.26,719.21 1821.19,781.70 1972.87,884.95 2175.81,938.78"/>
    </edge>
    <edge id="E1_P1_P0" from="P1" to="P0" priority="-1" shape="2181.96,941.34 1972.49,885.78 1820.76,782.50 1669.03,720.09 1517.30,703.05 1373.37,702.36">
        <lane id="E1_P1_P0_0" index="0" speed="13.90" length="846.19" width="1.80" shape="2175.35,940.52 1972.11,886.61 1820.33,783.30 1668.80,720.97 1517.25,703.95 1381.28,703.30"/>
    </edge>
    <edge id="E2_P1_P2" from="P1" to="P2" priority="-1" shape="2181.96,941.34 2427.61,925.76 2579.34,949.01 2731.07,929.21 2882.80,978.68 3034.53,1018.53 3186.26,1040.41 3337.99,1042.54 3489.72,1069.32 3641.45,1109.61 3793.18,1130.23 3877.84,1127.40">
        <lane id="E2_P1_P2_0" index="0" speed="13.90" length="1708.94" width="1.80" shape="2190.74,939.88 2427.65,924.86 2579.35,948.10 2731.16,928.29 2883.05,977.82 3034.71,1017.65 3186.33,1039.51 3338.08,1041.64 3489.91,1068.44 3641.63,1108.73 3793.23,1129.33 3872.51,1126.68"/>
    </edge>
    <edge id="E2_P2_P1" from="P2" to="P1" priority="-1" shape="3877.84,1127.40 3793.18,1130.23 3641.45,1109.61 3489.72,1069.32 3337.99,1042.54 3186.26,1040.41 3034.53,1018.53 2882.80,978.68 2731.07,929.21 2579.34,949.01 2427.61,925.76 2181.96,941.34">
        <lane id="E2_P2_P1_0" index="0" speed="13.90" length="1708.88" width="1.80" shape="3872.57,1128.48 3793.13,1131.13 3641.27,1110.49 3489.53,1070.20 3337.90,1043.44 3186.19,1041.31 3034.35,1019.41 2882.55,979.54 2730.98,930.13 2579.33,949.92 2427.57,926.66 2190.85,941.68"/>
    </edge>
    <edge id="E3_P2_P4" from="P2" to="P4" priority="-1">
        <lane id="E3_P2_P4_0" index="0" speed="13.90" length="211.51" width="1.80" shape="3886.12,1125.66 4096.56,1104.38"/>
    </edge>
    <edge id="E3_P4_P2" from="P4" to="P2" priority="-1">
        <lane id="E3_P4_P2_0" index="0" speed="13.90" length="211.51" width="1.80" shape="4096.74,1106.18 3886.31,1127.45"/>
    </edge>
    <edge id="E4_P0_P5" from="P0" to="P5" priority="-1" shape="1373.37,702.36 1213.84,717.01 1062.11,724.86 910.38,718.52 758.65,731.15 606.92,761.13 455.19,780.93 303.46,800.67 151.73,751.39 0.00,753.65">
        <lane id="E4_P0_P5_0" index="0" speed="13.90" length="1380.38" width="1.80" shape="1365.57,703.98 1213.90,717.91 1062.11,725.76 910.40,719.42 758.77,732.04 607.07,762.02 455.31,781.82 303.37,801.59 151.59,752.29 0.01,754.55"/>
    </edge>
    <edge id="E4_P5_P0" from="P5" to="P0" priority="-1" shape="0.00,753.65 151.73,751.39 303.46,800.67 455.19,780.93 606.92,761.13 758.65,731.15 910.38,718.52 1062.11,724.86 1213.84,717.01 1373.37,702.36">
        <lane id="E4_P5_P0_0" index="0" speed="13.90" length="1380.23" width="1.80" shape="-0.01,752.75 151.87,750.49 303.55,799.75 455.07,780.04 606.77,760.24 758.53,730.26 910.36,717.62 1062.11,723.96 1213.78,716.11 1365.41,702.19"/>
    </edge>
    <edge id="E5_P0_P6" from="P0" to="P6" priority="-1" shape="1409.04,766.35 1347.99,656.85 1535.03,547.36 1467.51,437.92 1541.50,328.42 1507.52,218.93 1545.40,109.49 1505.61,0.00">
        <lane id="E5_P0_P6_0" index="0" speed="13.90" length="941.96" width="1.80" shape="1404.36,759.80 1346.77,656.52 1533.78,547.05 1466.44,437.90 1540.51,328.27 1506.57,218.91 1544.45,109.50 1504.76,0.31"/>
    </edge>
    <edge id="E5_P6_P0" from="P6" to="P0" priority="-1" shape="1505.61,0.00 1545.40,109.49 1507.52,218.93 1541.50,328.42 1467.51,437.92 1535.03,547.36 1347.99,656.85 1409.04,766.35">
        <lane id="E5_P6_P0_0" index="0" speed="13.90" length="941.62" width="1.80" shape="1506.46,-0.31 1546.35,109.48 1508.47,218.95 1542.49,328.57 1468.58,437.94 1536.28,547.67 1349.21,657.18 1405.93,758.92"/>
    </edge>
    <edge id="E6_P1_P7" from="P1" to="P7" priority="-1" shape="2181.96,941.34 2150.55,985.28 2066.49,1204.21 2104.15,1313.71">
        <lane id="E6_P1_P7_0" index="0" speed="13.90" length="396.83" width="1.80" shape="2178.85,947.24 2151.35,985.71 2067.45,1204.23 2105.00,1313.42"/>
    </edge>
    <edge id="E6_P7_P1" from="P7" to="P1" priority="-1" shape="2104.15,1313.71 2066.49,1204.21 2150.55,985.28 2181.96,941.34">
        <lane id="E6_P7_P1_0" index="0" speed="13.90" length="398.60" width="1.80" shape="2103.30,1314.00 2065.53,1204.19 2149.75,984.85 2177.39,946.19"/>
    </edge>
    <edge id="E7_P1_P6" from="P1" to="P6" priority="-1" shape="2181.96,941.34 2361.20,766.35 2269.70,656.85 2029.94,547.36 1681.10,437.92 1541.50,328.42 1507.52,218.93 1545.40,109.49 1505.61,0.00">
        <lane id="E7_P1_P6_0" index="0" speed="13.90" length="1536.54" width="1.80" shape="2187.67,934.51 2359.98,766.29 2269.14,657.58 2029.62,548.20 1680.67,438.73 1540.72,328.95 1506.57,218.91 1544.45,109.50 1504.76,0.31"/>
    </edge>
    <edge id="E7_P6_P1" from="P6" to="P1" priority="-1" shape="1505.61,0.00 1545.40,109.49 1507.52,218.93 1541.50,328.42 1681.10,437.92 2029.94,547.36 2269.70,656.85 2361.20,766.35 2181.96,941.34">
        <lane id="E7_P6_P1_0" index="0" speed="13.90" length="1539.23" width="1.80" shape="1506.46,-0.31 1546.35,109.48 1508.47,218.95 1542.28,327.89 1681.53,437.11 2030.26,546.52 2270.26,656.12 2362.42,766.41 2188.92,935.80"/>
    </edge>
    <edge id="E8_P2_P8" from="P2" to="P8" priority="-1">
        <lane id="E8_P2_P8_0" index="0" speed="13.90" length="114.80" width="1.80" shape="3884.98,1131.94 3974.75,1203.51"/>
    </edge>
    <edge id="E8_P8_P2" from="P8" to="P2" priority="-1">
        <lane id="E8_P8_P2_0" index="0" speed="13.90" length="114.80" width="1.80" shape="3973.63,1204.91 3883.86,1133.35"/>
    </edge>
    <edge id="E9_P2_P9" from="P2" to="P9" priority="-1" shape="3877.84,1127.40 3919.32,985.28 3719.71,875.78">
        <lane id="E9_P2_P9_0" index="0" speed="13.90" length="367.61" width="1.80" shape="3878.85,1120.74 3918.25,985.72 3719.28,876.57"/>
    </edge>
    <edge id="E9_P9_P2" from="P9" to="P2" priority="-1" shape="3719.71,875.78 3919.32,985.28 3877.84,1127.40">
        <lane id="E9_P9_P2_0" index="0" speed="13.90" length="370.50" width="1.80" shape="3720.14,874.99 3920.39,984.84 3880.57,1121.25"/>
    </edge>

    <tlLogic id="P0" type="static" programID="0" offset="0">
        <phase duration="39" state="GGggGGggrrrrrrrr"/>
        <phase duration="3"  state="yyyyyyyyrrrrrrrr"/>
        <phase duration="3"  state="rrrrrrrrrrrrrrrr"/>
        <phase duration="39" state="rrrrrrrrGGggGGgg"/>
        <phase duration="3"  state="rrrrrrrryyyyyyyy"/>
        <phase duration="3"  state="rrrrrrrrrrrrrrrr"/>
    </tlLogic>
    <tlLogic id="P1" type="static" programID="0" offset="0">
        <phase duration="42" state="rrrrGGggrrrrGGgg"/>
        <phase duration="3"  state="rrrryyyyrrrryyyy"/>
        <phase duration="42" state="GGggrrrrGGggrrrr"/>
        <phase duration="3"  state="yyyyrrrryyyyrrrr"/>
    </tlLogic>
    <tlLogic id="P2" type="static" programID="0" offset="0">
        <phase duration="38" state="rrrrGGggrrrrGGgg"/>
        <phase duration="3"  state="rrrryyyyrrrryyyy"/>
        <phase duration="37" state="GGggrrrrGGggrrrr"/>
        <phase duration="3"  state="yyggrrrryyggrrrr"/>
        <phase duration="6"  state="rrGGrrrrrrGGrrrr"/>
        <phase duration="3"  state="rryyrrrrrryyrrrr"/>
    </tlLogic>

    <junction id="P0" type="traffic_light" x="1373.37" y="702.36" incLanes="E1_P1_P0_0 E0_P3_P0_0 E4_P5_P0_0 E5_P6_P0_0" intLanes=":P0_0_0 :P0_1_0 :P0_16_0 :P0_17_0 :P0_4_0 :P0_5_0 :P0_18_0 :P0_19_0 :P0_8_0 :P0_9_0 :P0_20_0 :P0_21_0 :P0_12_0 :P0_13_0 :P0_14_0 :P0_22_0" shape="1381.27,704.20 1381.29,700.60 1405.14,759.36 1403.57,760.24 1365.33,701.29 1365.65,704.88 1406.72,758.49 1405.14,759.36">
        <request index="0"  response="0000010000000000" foes="1101110011000000" cont="0"/>
        <request index="1"  response="0000000000000000" foes="1111100001000000" cont="0"/>
        <request index="2"  response="0011000000110000" foes="1111001100110000" cont="1"/>
        <request index="3"  response="0100001000100000" foes="0100001000100000" cont="1"/>
        <request index="4"  response="0000000000000000" foes="1000000100000100" cont="0"/>
        <request index="5"  response="0000000000000000" foes="1100001100001100" cont="0"/>
        <request index="6"  response="0000010000000011" foes="0011111100000011" cont="1"/>
        <request index="7"  response="0001111100000001" foes="0001111100000001" cont="1"/>
        <request index="8"  response="0000000001110100" foes="1000000011110100" cont="0"/>
        <request index="9"  response="0000000001100100" foes="1100000011101100" cont="0"/>
        <request index="10" response="0011000000000001" foes="0011000011000001" cont="1"/>
        <request index="11" response="0011000001000011" foes="0011000011000011" cont="1"/>
        <request index="12" response="0000000001000011" foes="0000110011000011" cont="0"/>
        <request index="13" response="0000000001000010" foes="0000110001000010" cont="0"/>
        <request index="14" response="0000001000100111" foes="0000001000101111" cont="0"/>
        <request index="15" response="0000001100110111" foes="0000001100110111" cont="1"/>
    </junction>
    <junction id="P1" type="traffic_light" x="2181.96" y="941.34" incLanes="E2_P2_P1_0 E7_P6_P1_0 E1_P0_P1_0 E6_P7_P1_0" intLanes=":P1_0_0 :P1_1_0 :P1_16_0 :P1_17_0 :P1_4_0 :P1_5_0 :P1_18_0 :P1_19_0 :P1_8_0 :P1_9_0 :P1_20_0 :P1_21_0 :P1_12_0 :P1_13_0 :P1_22_0 :P1_23_0" shape="2190.91,942.58 2190.68,938.98 2189.55,936.44 2187.04,933.87 2176.04,937.91 2175.11,941.39 2176.65,945.67 2179.58,947.76">
        <request index="0"  response="0000000000100000" foes="1000010000100000" cont="0"/>
        <request index="1"  response="0111000001100000" foes="0111110001100000" cont="0"/>
        <request index="2"  response="0110001101100000" foes="0110001111100000" cont="1"/>
        <request index="3"  response="0100001000010000" foes="0100001000010000" cont="1"/>
        <request index="4"  response="0000000000000000" foes="0100001000001000" cont="0"/>
        <request index="5"  response="0000010000000100" foes="1100011000000111" cont="0"/>
        <request index="6"  response="0011010000000100" foes="0111111000000110" cont="1"/>
        <request index="7"  response="0010000100000100" foes="0010000100000100" cont="1"/>
        <request index="8"  response="0010000000000000" foes="0010000010000100" cont="0"/>
        <request index="9"  response="0110000001110000" foes="0110000001111100" cont="0"/>
        <request index="10" response="0110000001100011" foes="1110000001100011" cont="1"/>
        <request index="11" response="0001000001000010" foes="0001000001000010" cont="1"/>
        <request index="12" response="0000000000000000" foes="0000100001000010" cont="0"/>
        <request index="13" response="0000010000000100" foes="0000011111000110" cont="0"/>
        <request index="14" response="0000010001110100" foes="0000011001111110" cont="1"/>
        <request index="15" response="0000010000100001" foes="0000010000100001" cont="1"/>
    </junction>
    <junction id="P2" type="traffic_light" x="3877.84" y="1127.40" incLanes="E8_P8_P2_0 E3_P4_P2_0 E9_P9_P2_0 E2_P1_P2_0" intLanes=":P2_0_0 :P2_1_0 :P2_16_0 :P2_17_0 :P2_4_0 :P2_5_0 :P2_18_0 :P2_19_0 :P2_8_0 :P2_9_0 :P2_20_0 :P2_21_0 :P2_12_0 :P2_13_0 :P2_22_0 :P2_23_0" shape="3883.30,1134.05 3885.54,1131.24 3886.40,1128.34 3886.03,1124.76 3881.44,1121.50 3877.98,1120.49 3872.48,1125.78 3872.60,1129.38">
        <request index="0"  response="0000000000100000" foes="1000010000100000" cont="0"/>
        <request index="1"  response="0111000001100000" foes="0111110001100000" cont="0"/>
        <request index="2"  response="0110001101100000" foes="0110001111100000" cont="1"/>
        <request index="3"  response="0100001000010000" foes="0100001000010000" cont="1"/>