<edges>
    <edge id="E0_P3_P0" from="P3" to="P0" numLanes="1" speed="13.9" shape="180.0,1049.82 331.73,1028.57 483.46,997.14 635.19,967.22 786.92,947.42 938.65,917.44 1090.38,904.81 1242.11,911.15 1393.84,903.3 1553.37,888.65"/>
    <edge id="E0_P0_P3" from="P0" to="P3" numLanes="1" speed="13.9" shape="1553.37,888.65 1393.84,903.3 1242.11,911.15 1090.38,904.81 938.65,917.44 786.92,947.42 635.19,967.22 483.46,997.14 331.73,1028.57 180.0,1049.82"/>
    <edge id="E1_P0_P1" from="P0" to="P1" numLanes="1" speed="13.9" shape="1553.37,888.65 1697.3,889.34 1849.03,906.38 2000.76,968.79 2152.49,1072.07 2361.96,1127.63"/>
    <edge id="E1_P1_P0" from="P1" to="P0" numLanes="1" speed="13.9" shape="2361.96,1127.63 2152.49,1072.07 2000.76,968.79 1849.03,906.38 1697.3,889.34 1553.37,888.65"/>
    <edge id="E2_P1_P2" from="P1" to="P2" numLanes="1" speed="13.9" shape="2361.96,1127.63 2607.61,1112.05 2759.34,1135.3 2911.07,1115.5 3062.8,1164.97 3214.53,1204.82 3366.26,1226.7 3517.99,1228.83 3669.72,1255.61 3821.45,1295.9 3973.18,1316.52 4057.84,1313.69"/>
    <edge id="E2_P2_P1" from="P2" to="P1" numLanes="1" speed="13.9" shape="4057.84,1313.69 3973.18,1316.52 3821.45,1295.9 3669.72,1255.61 3517.99,1228.83 3366.26,1226.7 3214.53,1204.82 3062.8,1164.97 2911.07,1115.5 2759.34,1135.3 2607.61,1112.05 2361.96,1127.63"/>
    <edge id="E3_P2_P4" from="P2" to="P4" numLanes="1" speed="13.9" shape="4057.84,1313.69 4276.65,1291.57"/>
    <edge id="E3_P4_P2" from="P4" to="P2" numLanes="1" speed="13.9" shape="4276.65,1291.57 4057.84,1313.69"/>
    <edge id="E4_P5_P0" from="P5" to="P0" numLanes="1" speed="13.9" shape="180.0,939.94 331.73,937.68 483.46,986.96 635.19,967.22 786.92,947.42 938.65,917.44 1090.38,904.81 1242.11,911.15 1393.84,903.3 1553.37,888.65"/>
    <edge id="E4_P0_P5" from="P0" to="P5" numLanes="1" speed="13.9" shape="1553.37,888.65 1393.84,903.3 1242.11,911.15 1090.38,904.81 938.65,917.44 786.92,947.42 635.19,967.22 483.46,986.96 331.73,937.68 180.0,939.94"/>
    <edge id="E5_P0_P6" from="P0" to="P6" numLanes="1" speed="13.9" shape="1589.04,952.64 1527.99,843.14 1715.03,733.65 1647.51,624.21 1721.5,514.71 1687.52,405.22 1725.4,295.78 1685.61,186.29"/>
    <edge id="E5_P6_P0" from="P6" to="P0" numLanes="1" speed="13.9" shape="1685.61,186.29 1725.4,295.78 1687.52,405.22 1721.5,514.71 1647.51,624.21 1715.03,733.65 1527.99,843.14 1589.04,952.64"/>
    <edge id="E6_P7_P1" from="P7" to="P1" numLanes="1" speed="13.9" shape="2284.15,1500.0 2246.49,1390.5 2330.55,1171.57 2361.96,1127.63"/>
    <edge id="E6_P1_P7" from="P1" to="P7" numLanes="1" speed="13.9" shape="2361.96,1127.63 2330.55,1171.57 2246.49,1390.5 2284.15,1500.0"/>
    <edge id="E7_P1_P6" from="P1" to="P6" numLanes="1" speed="13.9" shape="2361.96,1127.63 2541.2,952.64 2449.7,843.14 2209.94,733.65 1861.1,624.21 1721.5,514.71 1687.52,405.22 1725.4,295.78 1685.61,186.29"/>
    <edge id="E7_P6_P1" from="P6" to="P1" numLanes="1" speed="13.9" shape="1685.61,186.29 1725.4,295.78 1687.52,405.22 1721.5,514.71 1861.1,624.21 2209.94,733.65 2449.7,843.14 2541.2,952.64 2361.96,1127.63"/>
    <edge id="E8_P8_P2" from="P8" to="P2" numLanes="1" speed="13.9" shape="4154.19,1390.5 4057.84,1313.69"/>
    <edge id="E8_P2_P8" from="P2" to="P8" numLanes="1" speed="13.9" shape="4057.84,1313.69 4154.19,1390.5"/>
    <edge id="E9_P2_P9" from="P2" to="P9" numLanes="1" speed="13.9" shape="4057.84,1313.69 4099.32,1171.57 3899.71,1062.07"/>
    <edge id="E9_P9_P2" from="P9" to="P2" numLanes="1" speed="13.9" shape="3899.71,1062.07 4099.32,1171.57 4057.84,1313.69"/>
</edges>