<edges>
    <edge id="E0_P1_P0" from="P1" to="P0" numLanes="1" speed="13.9" shape="70.0,314.3 343.33,363.97 530.26,427.9"/>
    <edge id="E0_P0_P1" from="P0" to="P1" numLanes="1" speed="13.9" shape="530.26,427.9 343.33,363.97 70.0,314.3"/>
    <edge id="E1_P0_P2" from="P0" to="P2" numLanes="1" speed="13.9" shape="530.26,427.9 798.89,555.34 890.0,570.0"/>
    <edge id="E1_P2_P0" from="P2" to="P0" numLanes="1" speed="13.9" shape="890.0,570.0 798.89,555.34 530.26,427.9"/>
    <edge id="E2_P0_P3" from="P0" to="P3" numLanes="1" speed="13.9" shape="578.55,741.82 505.81,368.66 394.05,70.0"/>
    <edge id="E2_P3_P0" from="P3" to="P0" numLanes="1" speed="13.9" shape="394.05,70.0 505.81,368.66 578.55,741.82"/>
</edges>