<nodes>
    <node id="P0" x="1191.43" y="1012.28" type="traffic_light"/>
    <node id="P1" x="180.0" y="1040.0" type="priority"/>
    <node id="P2" x="2213.2" y="1040.0" type="priority"/>
    <node id="P3" x="1200.0" y="1900.0" type="priority"/>
    <node id="P4" x="1196.6" y="186.62" type="priority"/>
</nodes>