<edges>
    <edge id="E0_P1_P0" from="P1" to="P0" numLanes="1" speed="13.9" shape="180.0,1040.0 419.22,1040.0 658.38,1040.0 897.6,1022.87 1136.83,1008.38 1191.43,1012.28"/>
    <edge id="E0_P0_P1" from="P0" to="P1" numLanes="1" speed="13.9" shape="1191.43,1012.28 1136.83,1008.38 897.6,1022.87 658.38,1040.0 419.22,1040.0 180.0,1040.0"/>
    <edge id="E1_P0_P2" from="P0" to="P2" numLanes="1" speed="13.9" shape="1191.43,1012.28 1375.98,1006.92 1615.21,997.0 1854.43,997.0 2093.59,1040.0 2213.2,1040.0"/>
    <edge id="E1_P2_P0" from="P2" to="P0" numLanes="1" speed="13.9" shape="2213.2,1040.0 2093.59,1040.0 1854.43,997.0 1615.21,997.0 1375.98,1006.92 1191.43,1012.28"/>
    <edge id="E2_P3_P0" from="P3" to="P0" numLanes="1" speed="13.9" shape="1200.0,1900.0 1200.0,1671.57 1200.0,1443.08 1200.0,1214.65 1191.43,1012.28"/>
    <edge id="E2_P0_P3" from="P0" to="P3" numLanes="1" speed="13.9" shape="1191.43,1012.28 1200.0,1214.65 1200.0,1443.08 1200.0,1671.57 1200.0,1900.0"/>
    <edge id="E3_P0_P4" from="P0" to="P4" numLanes="1" speed="13.9" shape="1191.43,1012.28 1177.15,871.97 1142.2,757.72 1118.4,529.29 1116.22,300.86 1196.6,186.62"/>
    <edge id="E3_P4_P0" from="P4" to="P0" numLanes="1" speed="13.9" shape="1196.6,186.62 1116.22,300.86 1118.4,529.29 1142.2,757.72 1177.15,871.97 1191.43,1012.28"/>
</edges>