<?xml version="1.0" encoding="UTF-8"?>

<!-- generated on 2026-04-11T21:02:01.723875+05:30 by Eclipse SUMO netconvert 1.26.0
<netconvertConfiguration xmlns:xsi="http://www.w3.org/2001/XMLSchema-instance" xsi:noNamespaceSchemaLocation="http://sumo.dlr.de/xsd/netconvertConfiguration.xsd">

    <input>
        <node-files value="C:\Users\santhosh\OneDrive\Desktop\trafiic pro\web_runs\20260411_210200_968294\area.nod.xml"/>
        <edge-files value="C:\Users\santhosh\OneDrive\Desktop\trafiic pro\web_runs\20260411_210200_968294\area.edg.xml"/>
    </input>

    <output>
        <output-file value="C:\Users\santhosh\OneDrive\Desktop\trafiic pro\web_runs\20260411_210200_968294\area.net.xml"/>
    </output>

</netconvertConfiguration>
-->

<net version="1.20" junctionCornerDetail="5" limitTurnSpeed="5.50" xmlns:xsi="http://www.w3.org/2001/XMLSchema-instance" xsi:noNamespaceSchemaLocation="http://sumo.dlr.de/xsd/net_file.xsd">

    <location netOffset="0.00,0.00" convBoundary="0.00,0.00,900.00,763.00" origBoundary="0.00,0.00,900.00,763.00" projParameter="!"/>

    <edge id=":E0_0" function="internal">
        <lane id=":E0_0_0" index="0" speed="3.65" length="4.67" shape="900.00,105.33 901.20,106.13 901.60,106.93 901.20,107.73 900.00,108.53"/>
    </edge>
    <edge id=":E1_0" function="internal">
        <lane id=":E1_0_0" index="0" speed="3.65" length="4.67" shape="900.00,642.37 901.20,643.17 901.60,643.97 901.20,644.77 900.00,645.57"/>
    </edge>
    <edge id=":J0_0_0" function="internal">
        <lane id=":J0_0_0_0" index="0" speed="6.97" length="10.02" shape="150.36,109.42 147.76,109.80 145.85,110.98 144.62,112.95 144.06,115.72"/>
    </edge>
    <edge id=":J0_0_1" function="internal">
        <lane id=":J0_0_1_0" index="0" speed="13.90" length="21.21" shape="150.36,109.42 129.16,109.38"/>
        <lane id=":J0_0_1_1" index="1" speed="13.90" length="21.21" shape="150.37,106.22 129.16,106.18"/>
    </edge>
    <edge id=":J0_0_3" function="internal">
        <lane id=":J0_0_3_0" index="0" speed="9.27" length="4.94" shape="150.37,106.22 145.48,105.50"/>
    </edge>
    <edge id=":J0_0_4" function="internal">
        <lane id=":J0_0_4_0" index="0" speed="3.65" length="1.44" shape="150.37,106.22 149.17,105.41"/>
    </edge>
    <edge id=":J0_0_20" function="internal">
        <lane id=":J0_0_20_0" index="0" speed="9.27" length="14.40" shape="145.48,105.50 145.13,105.45 141.39,103.19 139.15,99.43 138.40,94.18"/>
    </edge>
    <edge id=":J0_0_21" function="internal">
        <lane id=":J0_0_21_0" index="0" speed="3.65" length="3.23" shape="149.17,105.41 148.78,104.61 149.18,103.81 150.38,103.02"/>
    </edge>
    <edge id=":J0_0_5" function="internal">
        <lane id=":J0_0_5_0" index="0" speed="6.52" length="9.05" shape="144.80,94.18 145.15,96.64 146.20,98.40 147.95,99.46 150.39,99.82"/>
    </edge>
    <edge id=":J0_0_6" function="internal">
        <lane id=":J0_0_6_0" index="0" speed="13.90" length="21.45" shape="144.80,94.18 144.06,115.72"/>
        <lane id=":J0_0_6_1" index="1" speed="13.90" length="21.45" shape="141.60,94.18 140.87,115.51"/>
    </edge>
    <edge id=":J0_0_8" function="internal">
        <lane id=":J0_0_8_0" index="0" speed="9.34" length="5.31" shape="141.60,94.18 140.82,99.43"/>
    </edge>
    <edge id=":J0_0_9" function="internal">
        <lane id=":J0_0_9_0" index="0" speed="3.65" length="1.44" shape="141.60,94.18 140.80,95.38"/>
    </edge>
    <edge id=":J0_0_22" function="internal">
        <lane id=":J0_0_22_0" index="0" speed="9.34" length="14.40" shape="140.82,99.43 138.49,103.18 134.60,105.43 129.16,106.18"/>
    </edge>
    <edge id=":J0_0_23" function="internal">
        <lane id=":J0_0_23_0" index="0" speed="3.65" length="3.23" shape="140.80,95.38 140.00,95.78 139.20,95.38 138.40,94.18"/>
    </edge>
    <edge id=":J0_0_10" function="internal">
        <lane id=":J0_0_10_0" index="0" speed="6.62" length="9.39" shape="129.16,99.78 131.80,99.43 133.69,98.38 134.82,96.63 135.20,94.18"/>
    </edge>
    <edge id=":J0_0_11" function="internal">
        <lane id=":J0_0_11_0" index="0" speed="13.90" length="21.23" shape="129.16,99.78 150.39,99.82"/>
        <lane id=":J0_0_11_1" index="1" speed="13.90" length="21.23" shape="129.16,102.98 150.38,103.02"/>
    </edge>
    <edge id=":J0_0_13" function="internal">
        <lane id=":J0_0_13_0" index="0" speed="9.16" length="5.04" shape="129.16,102.98 134.14,103.70"/>
    </edge>
    <edge id=":J0_0_14" function="internal">
        <lane id=":J0_0_14_0" index="0" speed="3.65" length="1.44" shape="129.16,102.98 130.36,103.78"/>
    </edge>
    <edge id=":J0_0_24" function="internal">
        <lane id=":J0_0_24_0" index="0" speed="9.16" length="14.83" shape="134.14,103.70 134.60,103.76 138.36,106.11 140.45,110.03 140.87,115.51"/>
    </edge>
    <edge id=":J0_0_25" function="internal">
        <lane id=":J0_0_25_0" index="0" speed="3.65" length="3.23" shape="130.36,103.78 130.76,104.58 130.36,105.38 129.16,106.18"/>
    </edge>
    <edge id=":J0_0_15" function="internal">
        <lane id=":J0_0_15_0" index="0" speed="6.37" length="9.04" shape="134.49,115.08 134.30,112.59 133.34,110.80 131.63,109.74 129.16,109.38"/>
    </edge>
    <edge id=":J0_0_16" function="internal">
        <lane id=":J0_0_16_0" index="0" speed="13.90" length="21.02" shape="134.49,115.08 135.20,94.18"/>
        <lane id=":J0_0_16_1" index="1" speed="13.90" length="21.02" shape="137.68,115.29 138.40,94.18"/>
    </edge>
    <edge id=":J0_0_18" function="internal">
        <lane id=":J0_0_18_0" index="0" speed="9.60" length="4.25" shape="137.68,115.29 138.53,111.13"/>
    </edge>
    <edge id=":J0_0_19" function="internal">
        <lane id=":J0_0_19_0" index="0" speed="3.65" length="1.44" shape="137.68,115.29 138.56,114.15"/>
    </edge>
    <edge id=":J0_0_26" function="internal">
        <lane id=":J0_0_26_0" index="0" speed="9.60" length="15.62" shape="138.53,111.13 138.78,109.91 141.27,106.06 145.13,103.77 150.38,103.02"/>
    </edge>
    <edge id=":J0_0_27" function="internal">
        <lane id=":J0_0_27_0" index="0" speed="3.65" length="3.23" shape="138.56,114.15 139.38,113.80 140.15,114.26 140.87,115.51"/>
    </edge>
    <edge id=":J0_1_0" function="internal">
        <lane id=":J0_1_0_0" index="0" speed="6.65" length="9.36" shape="796.70,111.73 794.21,112.10 792.41,113.20 791.32,115.03 790.92,117.60"/>
    </edge>
    <edge id=":J0_1_1" function="internal">
        <lane id=":J0_1_1_0" index="0" speed="13.90" length="27.30" shape="796.70,111.73 769.39,111.68"/>
        <lane id=":J0_1_1_1" index="1" speed="13.90" length="27.30" shape="796.70,108.53 769.41,108.48"/>
    </edge>
    <edge id=":J0_1_3" function="internal">
        <lane id=":J0_1_3_0" index="0" speed="9.84" length="6.38" shape="796.70,108.53 790.36,107.81"/>
    </edge>
    <edge id=":J0_1_4" function="internal">
        <lane id=":J0_1_4_0" index="0" speed="3.65" length="1.44" shape="796.70,108.53 795.50,107.73"/>
    </edge>
    <edge id=":J0_1_22" function="internal">
        <lane id=":J0_1_22_0" index="0" speed="9.84" length="15.64" shape="790.36,107.81 790.05,107.78 785.30,105.52 782.45,101.76 781.50,96.49"/>
    </edge>
    <edge id=":J0_1_23" function="internal">
        <lane id=":J0_1_23_0" index="0" speed="3.65" length="3.23" shape="795.50,107.73 795.10,106.93 795.50,106.13 796.70,105.33"/>
    </edge>
    <edge id=":J0_1_5" function="internal">
        <lane id=":J0_1_5_0" index="0" speed="6.52" length="9.06" shape="791.10,96.49 791.45,98.96 792.50,100.72 794.25,101.78 796.70,102.13"/>
    </edge>
    <edge id=":J0_1_6" function="internal">
        <lane id=":J0_1_6_0" index="0" speed="15.50" length="21.05" shape="791.10,96.49 790.92,117.60"/>
        <lane id=":J0_1_6_1" index="1" speed="15.50" length="21.05" shape="787.90,96.49 787.72,117.54"/>
        <lane id=":J0_1_6_2" index="2" speed="15.50" length="21.05" shape="784.70,96.49 784.52,117.49"/>
    </edge>
    <edge id=":J0_1_9" function="internal">
        <lane id=":J0_1_9_0" index="0" speed="9.84" length="4.19" shape="784.70,96.49 783.95,100.62"/>
    </edge>
    <edge id=":J0_1_10" function="internal">
        <lane id=":J0_1_10_0" index="0" speed="3.65" length="1.44" shape="784.70,96.49 783.90,97.69"/>
    </edge>
    <edge id=":J0_1_24" function="internal">
        <lane id=":J0_1_24_0" index="0" speed="9.84" length="17.89" shape="783.95,100.62 783.74,101.76 780.88,105.51 776.10,107.75 769.41,108.48"/>
    </edge>
    <edge id=":J0_1_25" function="internal">
        <lane id=":J0_1_25_0" index="0" speed="3.65" length="3.23" shape="783.90,97.69 783.10,98.09 782.30,97.69 781.50,96.49"/>
    </edge>
    <edge id=":J0_1_11" function="internal">
        <lane id=":J0_1_11_0" index="0" speed="6.52" length="9.08" shape="769.43,102.08 771.91,101.74 773.68,100.69 774.75,98.95 775.10,96.49"/>
    </edge>
    <edge id=":J0_1_12" function="internal">
        <lane id=":J0_1_12_0" index="0" speed="13.90" length="27.28" shape="769.43,102.08 796.70,102.13"/>
        <lane id=":J0_1_12_1" index="1" speed="13.90" length="27.28" shape="769.42,105.28 796.70,105.33"/>
    </edge>
    <edge id=":J0_1_14" function="internal">
        <lane id=":J0_1_14_0" index="0" speed="9.82" length="6.16" shape="769.42,105.28 775.53,106.00"/>
    </edge>
    <edge id=":J0_1_15" function="internal">
        <lane id=":J0_1_15_0" index="0" speed="3.65" length="1.44" shape="769.42,105.28 770.62,106.08"/>
    </edge>
    <edge id=":J0_1_26" function="internal">
        <lane id=":J0_1_26_0" index="0" speed="9.82" length="15.96" shape="775.53,106.00 776.10,106.06 780.85,108.36 783.65,112.17 784.52,117.49"/>
    </edge>
    <edge id=":J0_1_27" function="internal">
        <lane id=":J0_1_27_0" index="0" speed="3.65" length="3.23" shape="770.62,106.08 771.01,106.89 770.61,107.68 769.41,108.48"/>
    </edge>
    <edge id=":J0_1_16" function="internal">
        <lane id=":J0_1_16_0" index="0" speed="6.48" length="9.03" shape="774.92,117.32 774.61,114.86 773.59,113.10 771.85,112.04 769.39,111.68"/>
    </edge>
    <edge id=":J0_1_17" function="internal">
        <lane id=":J0_1_17_0" index="0" speed="15.50" length="20.88" shape="774.92,117.32 775.10,96.49"/>
        <lane id=":J0_1_17_1" index="1" speed="15.50" length="20.88" shape="778.12,117.38 778.30,96.49"/>
        <lane id=":J0_1_17_2" index="2" speed="15.50" length="20.88" shape="781.32,117.43 781.50,96.49"/>
    </edge>
    <edge id=":J0_1_20" function="internal">
        <lane id=":J0_1_20_0" index="0" speed="9.94" length="3.88" shape="781.32,117.43 782.07,113.62"/>
    </edge>
    <edge id=":J0_1_21" function="internal">
        <lane id=":J0_1_21_0" index="0" speed="3.65" length="1.44" shape="781.32,117.43 782.14,116.25"/>
    </edge>
    <edge id=":J0_1_28" function="internal">
        <lane id=":J0_1_28_0" index="0" speed="9.94" length="18.27" shape="782.07,113.62 782.36,112.14 785.27,108.36 790.05,106.09 796.70,105.33"/>
    </edge>
    <edge id=":J0_1_29" function="internal">
        <lane id=":J0_1_29_0" index="0" speed="3.65" length="3.23" shape="782.14,116.25 782.95,115.86 783.74,116.27 784.52,117.49"/>
    </edge>
    <edge id=":J1_0_0" function="internal">
        <lane id=":J1_0_0_0" index="0" speed="6.51" length="9.03" shape="98.55,665.03 98.20,662.58 97.15,660.83 95.40,659.78 92.95,659.43"/>
    </edge>
    <edge id=":J1_0_1" function="internal">
        <lane id=":J1_0_1_0" index="0" speed="13.90" length="27.93" shape="98.55,665.03 99.51,637.01"/>
        <lane id=":J1_0_1_1" index="1" speed="13.90" length="27.93" shape="101.75,665.03 102.70,637.22"/>
    </edge>
    <edge id=":J1_0_3" function="internal">
        <lane id=":J1_0_3_0" index="0" speed="10.01" length="6.89" shape="101.75,665.03 102.55,658.38 102.63,658.21"/>
    </edge>
    <edge id=":J1_0_4" function="internal">
        <lane id=":J1_0_4_0" index="0" speed="3.65" length="1.44" shape="101.75,665.03 102.55,663.83"/>
    </edge>
    <edge id=":J1_0_22" function="internal">
        <lane id=":J1_0_22_0" index="0" speed="10.01" length="15.74" shape="102.63,658.21 104.94,653.61 108.92,650.72 114.50,649.71"/>
    </edge>
    <edge id=":J1_0_23" function="internal">
        <lane id=":J1_0_23_0" index="0" speed="3.65" length="3.23" shape="102.55,663.83 103.35,663.43 104.15,663.83 104.95,665.03"/>
    </edge>
    <edge id=":J1_0_5" function="internal">
        <lane id=":J1_0_5_0" index="0" speed="6.78" length="9.81" shape="114.61,659.31 111.78,659.69 109.76,660.77 108.55,662.55 108.15,665.03"/>
    </edge>
    <edge id=":J1_0_6" function="internal">
        <lane id=":J1_0_6_0" index="0" speed="15.50" length="21.62" shape="114.61,659.31 92.95,659.43"/>
        <lane id=":J1_0_6_1" index="1" speed="15.50" length="21.62" shape="114.57,656.11 92.95,656.23"/>
        <lane id=":J1_0_6_2" index="2" speed="15.50" length="21.62" shape="114.54,652.91 92.95,653.03"/>
    </edge>
    <edge id=":J1_0_9" function="internal">
        <lane id=":J1_0_9_0" index="0" speed="9.72" length="4.21" shape="114.54,652.91 110.39,652.22"/>
    </edge>
    <edge id=":J1_0_10" function="internal">
        <lane id=":J1_0_10_0" index="0" speed="3.65" length="1.44" shape="114.54,652.91 113.33,652.12"/>
    </edge>
    <edge id=":J1_0_24" function="internal">
        <lane id=":J1_0_24_0" index="0" speed="9.72" length="18.53" shape="110.39,652.22 108.96,651.98 105.13,649.06 103.04,644.14 102.70,637.22"/>
    </edge>
    <edge id=":J1_0_25" function="internal">
        <lane id=":J1_0_25_0" index="0" speed="3.65" length="3.23" shape="113.33,652.12 112.92,651.32 113.31,650.52 114.50,649.71"/>
    </edge>
    <edge id=":J1_0_11" function="internal">
        <lane id=":J1_0_11_0" index="0" speed="6.34" length="9.04" shape="109.08,637.65 109.27,640.15 110.23,641.92 111.95,642.98 114.43,643.31"/>
    </edge>
    <edge id=":J1_0_12" function="internal">
        <lane id=":J1_0_12_0" index="0" speed="13.90" length="27.50" shape="109.08,637.65 108.15,665.03"/>
        <lane id=":J1_0_12_1" index="1" speed="13.90" length="27.50" shape="105.89,637.44 104.95,665.03"/>
    </edge>
    <edge id=":J1_0_14" function="internal">
        <lane id=":J1_0_14_0" index="0" speed="10.24" length="5.06" shape="105.89,637.44 105.01,642.42"/>
    </edge>
    <edge id=":J1_0_15" function="internal">
        <lane id=":J1_0_15_0" index="0" speed="3.65" length="1.44" shape="105.89,637.44 105.01,638.58"/>
    </edge>
    <edge id=":J1_0_26" function="internal">
        <lane id=":J1_0_26_0" index="0" speed="10.24" length="17.61" shape="105.01,642.42 104.69,644.26 102.13,649.13 98.22,652.06 92.95,653.03"/>
    </edge>
    <edge id=":J1_0_27" function="internal">
        <lane id=":J1_0_27_0" index="0" speed="3.65" length="3.23" shape="105.01,638.58 104.19,638.93 103.42,638.48 102.70,637.22"/>
    </edge>
    <edge id=":J1_0_16" function="internal">
        <lane id=":J1_0_16_0" index="0" speed="7.08" length="10.31" shape="92.95,643.43 95.66,643.03 97.65,641.83 98.93,639.82 99.51,637.01"/>
    </edge>
    <edge id=":J1_0_17" function="internal">
        <lane id=":J1_0_17_0" index="0" speed="15.50" length="21.52" shape="92.95,643.43 114.43,643.31"/>
        <lane id=":J1_0_17_1" index="1" speed="15.50" length="21.52" shape="92.95,646.63 114.47,646.51"/>
        <lane id=":J1_0_17_2" index="2" speed="15.50" length="21.52" shape="92.95,649.83 114.50,649.71"/>
    </edge>
    <edge id=":J1_0_20" function="internal">
        <lane id=":J1_0_20_0" index="0" speed="9.84" length="3.89" shape="92.95,649.83 96.78,650.52"/>
    </edge>
    <edge id=":J1_0_21" function="internal">
        <lane id=":J1_0_21_0" index="0" speed="3.65" length="1.44" shape="92.95,649.83 94.15,650.63"/>
    </edge>
    <edge id=":J1_0_28" function="internal">
        <lane id=":J1_0_28_0" index="0" speed="9.84" length="18.10" shape="96.78,650.52 98.20,650.78 101.95,653.63 104.20,658.38 104.95,665.03"/>
    </edge>
    <edge id=":J1_0_29" function="internal">
        <lane id=":J1_0_29_0" index="0" speed="3.65" length="3.23" shape="94.15,650.63 94.55,651.43 94.15,652.23 92.95,653.03"/>
    </edge>
    <edge id=":J1_1_0" function="internal">
        <lane id=":J1_1_0_0" index="0" speed="6.48" length="9.03" shape="765.85,657.68 765.50,655.22 764.45,653.48 762.69,652.45 760.23,652.12"/>
    </edge>
    <edge id=":J1_1_1" function="internal">
        <lane id=":J1_1_1_0" index="0" speed="15.50" length="27.56" shape="765.85,657.68 766.09,630.07"/>
        <lane id=":J1_1_1_1" index="1" speed="15.50" length="27.56" shape="769.05,657.68 769.29,630.12"/>
        <lane id=":J1_1_1_2" index="2" speed="15.50" length="27.56" shape="772.25,657.68 772.49,630.18"/>
    </edge>
    <edge id=":J1_1_4" function="internal">
        <lane id=":J1_1_4_0" index="0" speed="10.41" length="5.31" shape="772.25,657.68 773.00,652.42"/>
    </edge>
    <edge id=":J1_1_5" function="internal">
        <lane id=":J1_1_5_0" index="0" speed="3.65" length="1.44" shape="772.25,657.68 773.05,656.48"/>
    </edge>
    <edge id=":J1_1_24" function="internal">
        <lane id=":J1_1_24_0" index="0" speed="10.41" length="19.43" shape="773.00,652.42 773.21,650.98 776.09,646.20 780.89,643.33 787.62,642.37"/>
    </edge>
    <edge id=":J1_1_25" function="internal">
        <lane id=":J1_1_25_0" index="0" speed="3.65" length="3.23" shape="773.05,656.48 773.85,656.08 774.65,656.48 775.45,657.68"/>
    </edge>
    <edge id=":J1_1_6" function="internal">
        <lane id=":J1_1_6_0" index="0" speed="6.58" length="9.25" shape="787.62,651.97 785.09,652.33 783.29,653.40 782.21,655.18 781.85,657.68"/>
    </edge>
    <edge id=":J1_1_7" function="internal">
        <lane id=":J1_1_7_0" index="0" speed="15.50" length="27.42" shape="787.62,651.97 760.23,652.12"/>
        <lane id=":J1_1_7_1" index="1" speed="15.50" length="27.42" shape="787.62,648.77 760.20,648.92"/>
        <lane id=":J1_1_7_2" index="2" speed="15.50" length="27.42" shape="787.62,645.57 760.16,645.72"/>
    </edge>
    <edge id=":J1_1_10" function="internal">
        <lane id=":J1_1_10_0" index="0" speed="10.34" length="4.82" shape="787.62,645.57 782.84,644.89"/>
    </edge>
    <edge id=":J1_1_11" function="internal">
        <lane id=":J1_1_11_0" index="0" speed="3.65" length="1.44" shape="787.62,645.57 786.42,644.77"/>
    </edge>
    <edge id=":J1_1_26" function="internal">
        <lane id=":J1_1_26_0" index="0" speed="10.34" length="19.89" shape="782.84,644.89 780.90,644.61 776.14,641.72 773.33,636.91 772.49,630.18"/>
    </edge>
    <edge id=":J1_1_27" function="internal">
        <lane id=":J1_1_27_0" index="0" speed="3.65" length="3.23" shape="786.42,644.77 786.02,643.97 786.42,643.17 787.62,642.37"/>
    </edge>
    <edge id=":J1_1_12" function="internal">
        <lane id=":J1_1_12_0" index="0" speed="6.47" length="9.03" shape="782.09,630.34 782.40,632.80 783.42,634.56 785.16,635.62 787.62,635.97"/>
    </edge>
    <edge id=":J1_1_13" function="internal">
        <lane id=":J1_1_13_0" index="0" speed="15.50" length="27.39" shape="782.09,630.34 781.85,657.68"/>
        <lane id=":J1_1_13_1" index="1" speed="15.50" length="27.39" shape="778.89,630.29 778.65,657.68"/>
        <lane id=":J1_1_13_2" index="2" speed="15.50" length="27.39" shape="775.69,630.23 775.45,657.68"/>
    </edge>
    <edge id=":J1_1_16" function="internal">
        <lane id=":J1_1_16_0" index="0" speed="10.54" length="4.77" shape="775.69,630.23 774.94,634.94"/>
    </edge>
    <edge id=":J1_1_17" function="internal">
        <lane id=":J1_1_17_0" index="0" speed="3.65" length="1.44" shape="775.69,630.23 774.87,631.42"/>
    </edge>
    <edge id=":J1_1_28" function="internal">
        <lane id=":J1_1_28_0" index="0" speed="10.54" length="20.08" shape="774.94,634.94 774.62,636.95 771.67,641.77 766.85,644.69 760.16,645.72"/>
    </edge>
    <edge id=":J1_1_29" function="internal">
        <lane id=":J1_1_29_0" index="0" speed="3.65" length="3.23" shape="774.87,631.42 774.06,631.81 773.27,631.39 772.49,630.18"/>
    </edge>
    <edge id=":J1_1_18" function="internal">
        <lane id=":J1_1_18_0" index="0" speed="6.78" length="9.69" shape="760.05,636.12 762.66,635.72 764.53,634.58 765.67,632.69 766.09,630.07"/>
    </edge>
    <edge id=":J1_1_19" function="internal">
        <lane id=":J1_1_19_0" index="0" speed="15.50" length="27.53" shape="760.05,636.12 787.62,635.97"/>
        <lane id=":J1_1_19_1" index="1" speed="15.50" length="27.53" shape="760.09,639.32 787.62,639.17"/>
        <lane id=":J1_1_19_2" index="2" speed="15.50" length="27.53" shape="760.13,642.52 787.62,642.37"/>
    </edge>
    <edge id=":J1_1_22" function="internal">
        <lane id=":J1_1_22_0" index="0" speed="10.35" length="5.20" shape="760.13,642.52 765.29,643.20"/>
    </edge>
    <edge id=":J1_1_23" function="internal">
        <lane id=":J1_1_23_0" index="0" speed="3.65" length="1.44" shape="760.13,642.52 761.33,643.31"/>
    </edge>
    <edge id=":J1_1_30" function="internal">
        <lane id=":J1_1_30_0" index="0" speed="10.35" length="19.44" shape="765.29,643.20 766.83,643.41 771.62,646.23 774.49,650.98 775.45,657.68"/>
    </edge>
    <edge id=":J1_1_31" function="internal">
        <lane id=":J1_1_31_0" index="0" speed="3.65" length="3.23" shape="761.33,643.31 761.74,644.10 761.35,644.91 760.16,645.72"/>
    </edge>
    <edge id=":N0_0" function="internal">
        <lane id=":N0_0_0" index="0" speed="3.65" length="4.67" shape="138.40,0.00 139.20,-1.20 140.00,-1.60 140.80,-1.20 141.60,0.00"/>
    </edge>
    <edge id=":N1_0" function="internal">
        <lane id=":N1_0_0" index="0" speed="3.65" length="4.67" shape="781.50,0.00 782.30,-1.20 783.10,-1.60 783.90,-1.20 784.70,0.00"/>
    </edge>
    <edge id=":S0_0" function="internal">
        <lane id=":S0_0_0" index="0" speed="3.65" length="4.67" shape="104.95,763.00 104.15,764.20 103.35,764.60 102.55,764.20 101.75,763.00"/>
    </edge>
    <edge id=":S1_0" function="internal">
        <lane id=":S1_0_0" index="0" speed="3.65" length="4.67" shape="775.45,763.00 774.65,764.20 773.85,764.60 773.05,764.20 772.25,763.00"/>
    </edge>
    <edge id=":W0_0" function="internal">
        <lane id=":W0_0_0" index="0" speed="3.65" length="4.67" shape="0.00,106.18 -1.20,105.38 -1.60,104.58 -1.20,103.78 0.00,102.98"/>
    </edge>
    <edge id=":W1_0" function="internal">
        <lane id=":W1_0_0" index="0" speed="3.65" length="4.67" shape="0.00,653.03 -1.20,652.23 -1.60,651.43 -1.20,650.63 0.00,649.83"/>
    </edge>

    <edge id="E0_to_J0_1" from="E0" to="J0_1" priority="-1">
        <lane id="E0_to_J0_1_0" index="0" speed="13.90" length="103.30" shape="900.00,111.73 796.70,111.73"/>
        <lane id="E0_to_J0_1_1" index="1" speed="13.90" length="103.30" shape="900.00,108.53 796.70,108.53"/>
    </edge>
    <edge id="E1_to_J1_1" from="E1" to="J1_1" priority="-1">
        <lane id="E1_to_J1_1_0" index="0" speed="15.50" length="112.38" shape="900.00,651.97 787.62,651.97"/>
        <lane id="E1_to_J1_1_1" index="1" speed="15.50" length="112.38" shape="900.00,648.77 787.62,648.77"/>
        <lane id="E1_to_J1_1_2" index="2" speed="15.50" length="112.38" shape="900.00,645.57 787.62,645.57"/>
    </edge>
    <edge id="J0_0_to_J0_1" from="J0_0" to="J0_1" priority="-1">
        <lane id="J0_0_to_J0_1_0" index="0" speed="13.90" length="619.04" shape="150.39,99.82 769.43,102.08"/>
        <lane id="J0_0_to_J0_1_1" index="1" speed="13.90" length="619.04" shape="150.38,103.02 769.42,105.28"/>
    </edge>
    <edge id="J0_0_to_J1_0" from="J0_0" to="J1_0" priority="-1">
        <lane id="J0_0_to_J1_0_0" index="0" speed="13.90" length="523.10" shape="144.06,115.72 109.08,637.65"/>
        <lane id="J0_0_to_J1_0_1" index="1" speed="13.90" length="523.10" shape="140.87,115.51 105.89,637.44"/>
    </edge>
    <edge id="J0_0_to_N0" from="J0_0" to="N0" priority="-1">
        <lane id="J0_0_to_N0_0" index="0" speed="13.90" length="94.18" shape="135.20,94.18 135.20,0.00"/>
        <lane id="J0_0_to_N0_1" index="1" speed="13.90" length="94.18" shape="138.40,94.18 138.40,0.00"/>
    </edge>
    <edge id="J0_0_to_W0" from="J0_0" to="W0" priority="-1">
        <lane id="J0_0_to_W0_0" index="0" speed="13.90" length="129.16" shape="129.16,109.38 0.00,109.38"/>
        <lane id="J0_0_to_W0_1" index="1" speed="13.90" length="129.16" shape="129.16,106.18 0.00,106.18"/>
    </edge>
    <edge id="J0_1_to_E0" from="J0_1" to="E0" priority="-1">
        <lane id="J0_1_to_E0_0" index="0" speed="13.90" length="103.30" shape="796.70,102.13 900.00,102.13"/>
        <lane id="J0_1_to_E0_1" index="1" speed="13.90" length="103.30" shape="796.70,105.33 900.00,105.33"/>
    </edge>
    <edge id="J0_1_to_J0_0" from="J0_1" to="J0_0" priority="-1">
        <lane id="J0_1_to_J0_0_0" index="0" speed="13.90" length="619.04" shape="769.39,111.68 150.36,109.42"/>
        <lane id="J0_1_to_J0_0_1" index="1" speed="13.90" length="619.04" shape="769.41,108.48 150.37,106.22"/>
    </edge>
    <edge id="J0_1_to_J1_1" from="J0_1" to="J1_1" priority="-1">
        <lane id="J0_1_to_J1_1_0" index="0" speed="15.50" length="512.82" shape="790.92,117.60 782.09,630.34"/>
        <lane id="J0_1_to_J1_1_1" index="1" speed="15.50" length="512.82" shape="787.72,117.54 778.89,630.29"/>
        <lane id="J0_1_to_J1_1_2" index="2" speed="15.50" length="512.82" shape="784.52,117.49 775.69,630.23"/>
    </edge>
    <edge id="J0_1_to_N1" from="J0_1" to="N1" priority="-1">
        <lane id="J0_1_to_N1_0" index="0" speed="15.50" length="96.49" shape="775.10,96.49 775.10,0.00"/>
        <lane id="J0_1_to_N1_1" index="1" speed="15.50" length="96.49" shape="778.30,96.49 778.30,0.00"/>
        <lane id="J0_1_to_N1_2" index="2" speed="15.50" length="96.49" shape="781.50,96.49 781.50,0.00"/>
    </edge>
    <edge id="J1_0_to_J0_0" from="J1_0" to="J0_0" priority="-1">
        <lane id="J1_0_to_J0_0_0" index="0" speed="13.90" length="523.10" shape="99.51,637.01 134.49,115.08"/>
        <lane id="J1_0_to_J0_0_1" index="1" speed="13.90" length="523.10" shape="102.70,637.22 137.68,115.29"/>
    </edge>
    <edge id="J1_0_to_J1_1" from="J1_0" to="J1_1" priority="-1">
        <lane id="J1_0_to_J1_1_0" index="0" speed="15.50" length="645.66" shape="114.43,643.31 760.05,636.12"/>
        <lane id="J1_0_to_J1_1_1" index="1" speed="15.50" length="645.66" shape="114.47,646.51 760.09,639.32"/>
        <lane id="J1_0_to_J1_1_2" index="2" speed="15.50" length="645.66" shape="114.50,649.71 760.13,642.52"/>
    </edge>
    <edge id="J1_0_to_S0" from="J1_0" to="S0" priority="-1">
        <lane id="J1_0_to_S0_0" index="0" speed="13.90" length="97.97" shape="108.15,665.03 108.15,763.00"/>
        <lane id="J1_0_to_S0_1" index="1" speed="13.90" length="97.97" shape="104.95,665.03 104.95,763.00"/>
    </edge>
    <edge id="J1_0_to_W1" from="J1_0" to="W1" priority="-1">
        <lane id="J1_0_to_W1_0" index="0" speed="15.50" length="92.95" shape="92.95,659.43 0.00,659.43"/>
        <lane id="J1_0_to_W1_1" index="1" speed="15.50" length="92.95" shape="92.95,656.23 0.00,656.23"/>
        <lane id="J1_0_to_W1_2" index="2" speed="15.50" length="92.95" shape="92.95,653.03 0.00,653.03"/>
    </edge>
    <edge id="J1_1_to_E1" from="J1_1" to="E1" priority="-1">
        <lane id="J1_1_to_E1_0" index="0" speed="15.50" length="112.38" shape="787.62,635.97 900.00,635.97"/>
        <lane id="J1_1_to_E1_1" index="1" speed="15.50" length="112.38" shape="787.62,639.17 900.00,639.17"/>
        <lane id="J1_1_to_E1_2" index="2" speed="15.50" length="112.38" shape="787.62,642.37 900.00,642.37"/>
    </edge>
    <edge id="J1_1_to_J0_1" from="J1_1" to="J0_1" priority="-1">
        <lane id="J1_1_to_J0_1_0" index="0" speed="15.50" length="512.82" shape="766.09,630.07 774.92,117.32"/>
        <lane id="J1_1_to_J0_1_1" index="1" speed="15.50" length="512.82" shape="769.29,630.12 778.12,117.38"/>
        <lane id="J1_1_to_J0_1_2" index="2" speed="15.50" length="512.82" shape="772.49,630.18 781.32,117.43"/>
    </edge>
    <edge id="J1_1_to_J1_0" from="J1_1" to="J1_0" priority="-1">
        <lane id="J1_1_to_J1_0_0" index="0" speed="15.50" length="645.66" shape="760.23,652.12 114.61,659.31"/>
        <lane id="J1_1_to_J1_0_1" index="1" speed="15.50" length="645.66" shape="760.20,648.92 114.57,656.11"/>
        <lane id="J1_1_to_J1_0_2" index="2" speed="15.50" length="645.66" shape="760.16,645.72 114.54,652.91"/>
    </edge>
    <edge id="J1_1_to_S1" from="J1_1" to="S1" priority="-1">
        <lane id="J1_1_to_S1_0" index="0" speed="15.50" length="105.32" shape="781.85,657.68 781.85,763.00"/>
        <lane id="J1_1_to_S1_1" index="1" speed="15.50" length="105.32" shape="778.65,657.68 778.65,763.00"/>
        <lane id="J1_1_to_S1_2" index="2" speed="15.50" length="105.32" shape="775.45,657.68 775.45,763.00"/>
    </edge>
    <edge id="N0_to_J0_0" from="N0" to="J0_0" priority="-1">
        <lane id="N0_to_J0_0_0" index="0" speed="13.90" length="94.18" shape="144.80,0.00 144.80,94.18"/>
        <lane id="N0_to_J0_0_1" index="1" speed="13.90" length="94.18" shape="141.60,0.00 141.60,94.18"/>
    </edge>
    <edge id="N1_to_J0_1" from="N1" to="J0_1" priority="-1">
        <lane id="N1_to_J0_1_0" index="0" speed="15.50" length="96.49" shape="791.10,0.00 791.10,96.49"/>
        <lane id="N1_to_J0_1_1" index="1" speed="15.50" length="96.49" shape="787.90,0.00 787.90,96.49"/>
        <lane id="N1_to_J0_1_2" index="2" speed="15.50" length="96.49" shape="784.70,0.00 784.70,96.49"/>
    </edge>
    <edge id="S0_to_J1_0" from="S0" to="J1_0" priority="-1">
        <lane id="S0_to_J1_0_0" index="0" speed="13.90" length="97.97" shape="98.55,763.00 98.55,665.03"/>
        <lane id="S0_to_J1_0_1" index="1" speed="13.90" length="97.97" shape="101.75,763.00 101.75,665.03"/>
    </edge>
    <edge id="S1_to_J1_1" from="S1" to="J1_1" priority="-1">
        <lane id="S1_to_J1_1_0" index="0" speed="15.50" length="105.32" shape="765.85,763.00 765.85,657.68"/>
        <lane id="S1_to_J1_1_1" index="1" speed="15.50" length="105.32" shape="769.05,763.00 769.05,657.68"/>