<routes>
    <vType id="passenger" accel="2.8" decel="4.6" sigma="0.4" length="5" maxSpeed="16.7"/>
    <vType id="emergency" accel="3.2" decel="5.0" sigma="0.2" length="5" maxSpeed="18.0" color="1,0,0"/>
    <route id="upper_east" edges="WU_to_J0 J0_to_J1 J1_to_EU"/>
    <route id="upper_west" edges="EU_to_J1 J1_to_J0 J0_to_WU"/>
    <route id="middle_east" edges="WM_to_J2 J2_to_J3 J3_to_J4 J4_to_EM"/>
    <route id="middle_west" edges="EM_to_J4 J4_to_J3 J3_to_J2 J2_to_WM"/>
    <route id="lower_east" edges="WL_to_J5 J5_to_J6 J6_to_J7 J7_to_EL"/>
    <route id="lower_west" edges="EL_to_J7 J7_to_J6 J6_to_J5 J5_to_WL"/>
    <route id="north_south" edges="N_to_J1 J1_to_J3 J3_to_J6 J6_to_S"/>
    <route id="south_north" edges="S_to_J6 J6_to_J3 J3_to_J1 J1_to_N"/>
    <route id="north_middle_east" edges="N_to_J1 J1_to_J3 J3_to_J4 J4_to_EM"/>
    <route id="west_middle_south" edges="WM_to_J2 J2_to_J3 J3_to_J6 J6_to_S"/>
    <route id="upper_to_south" edges="WU_to_J0 J0_to_J1 J1_to_J3 J3_to_J6 J6_to_S"/>
    <route id="lower_to_north" edges="WL_to_J5 J5_to_J2 J2_to_J0 J0_to_J1 J1_to_N"/>
    <route id="middle_diagonal_east" edges="WM_to_J2 J2_to_J6 J6_to_J7 J7_to_EL"/>
    <route id="lower_to_middle_east" edges="WL_to_J5 J5_to_J6 J6_to_J3 J3_to_J4 J4_to_EM"/>
    <route id="east_to_south" edges="EM_to_J4 J4_to_J3 J3_to_J6 J6_to_S"/>
    <route id="east_to_upper_west" edges="EM_to_J4 J4_to_J3 J3_to_J1 J1_to_J0 J0_to_WU"/>
    <vehicle id="veh0" type="passenger" route="upper_to_south" depart="0.0"/>
    <vehicle id="veh1" type="passenger" route="west_middle_south" depart="0.47"/>
    <vehicle id="veh2" type="passenger" route="lower_to_middle_east" depart="0.95"/>
    <vehicle id="veh3" type="passenger" route="west_middle_south" depart="1.42"/>
    <vehicle id="veh4" type="passenger" route="north_middle_east" depart="1.9"/>
    <vehicle id="veh5" type="passenger" route="upper_to_south" depart="2.37"/>
    <vehicle id="veh6" type="passenger" route="north_south" depart="2.85"/>
    <vehicle id="veh7" type="passenger" route="lower_to_north" depart="3.32"/>
    <vehicle id="veh8" type="passenger" route="east_to_upper_west" depart="3.8"/>
    <vehicle id="veh9" type="passenger" route="lower_to_middle_east" depart="4.27"/>
    <vehicle id="veh10" type="passenger" route="middle_east" depart="4.75"/>
    <vehicle id="veh11" type="passenger" route="north_south" depart="5.22"/>
    <vehicle id="veh12" type="passenger" route="lower_to_middle_east" depart="5.7"/>
    <vehicle id="veh13" type="passenger" route="west_middle_south" depart="6.17"/>
    <vehicle id="veh14" type="passenger" route="upper_west" depart="6.65"/>
    <vehicle id="veh15" type="passenger" route="lower_west" depart="7.12"/>
    <vehicle id="veh16" type="passenger" route="upper_east" depart="7.6"/>
    <vehicle id="veh17" type="passenger" route="east_to_south" depart="8.07"/>
    <vehicle id="veh18" type="passenger" route="north_middle_east" depart="8.55"/>
    <vehicle id="veh19" type="passenger" route="north_south" depart="9.02"/>
    <vehicle id="veh20" type="passenger" route="east_to_south" depart="9.5"/>
    <vehicle id="veh21" type="passenger" route="east_to_south" depart="9.97"/>
    <vehicle id="veh22" type="passenger" route="upper_to_south" depart="10.45"/>
    <vehicle id="veh23" type="passenger" route="north_middle_east" depart="10.92"/>
    <vehicle id="veh24" type="passenger" route="west_middle_south" depart="11.4"/>
    <vehicle id="veh25" type="passenger" route="upper_to_south" depart="11.87"/>
    <vehicle id="veh26" type="passenger" route="lower_west" depart="12.35"/>
    <vehicle id="veh27" type="passenger" route="upper_west" depart="12.82"/>
    <vehicle id="veh28" type="emergency" route="north_middle_east" depart="13.3"/>
    <vehicle id="veh29" type="passenger" route="west_middle_south" depart="13.77"/>
    <vehicle id="veh30" type="passenger" route="west_middle_south" depart="14.25"/>
    <vehicle id="veh31" type="passenger" route="upper_east" depart="14.72"/>
    <vehicle id="veh32" type="passenger" route="middle_east" depart="15.2"/>
    <vehicle id="veh33" type="passenger" route="south_north" depart="15.67"/>
    <vehicle id="veh34" type="passenger" route="north_middle_east" depart="16.15"/>
    <vehicle id="veh35" type="passenger" route="north_middle_east" depart="16.62"/>
    <vehicle id="veh36" type="passenger" route="north_south" depart="17.1"/>
    <vehicle id="veh37" type="passenger" route="upper_to_south" depart="17.57"/>
    <vehicle id="veh38" type="passenger" route="north_middle_east" depart="18.05"/>
    <vehicle id="veh39" type="passenger" route="upper_east" depart="18.52"/>
    <vehicle id="veh40" type="passenger" route="north_middle_east" depart="19.0"/>
    <vehicle id="veh41" type="passenger" route="lower_to_north" depart="19.47"/>
    <vehicle id="veh42" type="passenger" route="north_south" depart="19.95"/>
    <vehicle id="veh43" type="passenger" route="east_to_upper_west" depart="20.42"/>
    <vehicle id="veh44" type="passenger" route="middle_diagonal_east" depart="20.9"/>
    <vehicle id="veh45" type="passenger" route="east_to_south" depart="21.37"/>
    <vehicle id="veh46" type="passenger" route="north_south" depart="21.85"/>
    <vehicle id="veh47" type="passenger" route="east_to_south" depart="22.32"/>
    <vehicle id="veh48" type="passenger" route="lower_to_middle_east" depart="22.8"/>
    <vehicle id="veh49" type="passenger" route="lower_east" depart="23.27"/>
    <vehicle id="veh50" type="emergency" route="north_south" depart="23.75"/>
    <vehicle id="veh51" type="passenger" route="north_south" depart="24.22"/>
    <vehicle id="veh52" type="passenger" route="upper_east" depart="24.7"/>
    <vehicle id="veh53" type="passenger" route="south_north" depart="25.17"/>
    <vehicle id="veh54" type="passenger" route="lower_to_north" depart="25.65"/>
    <vehicle id="veh55" type="passenger" route="east_to_upper_west" depart="26.12"/>
    <vehicle id="veh56" type="passenger" route="east_to_south" depart="26.6"/>
    <vehicle id="veh57" type="passenger" route="lower_to_middle_east" depart="27.07"/>
    <vehicle id="veh58" type="passenger" route="middle_east" depart="27.55"/>
    <vehicle id="veh59" type="passenger" route="west_middle_south" depart="28.02"/>
    <vehicle id="veh60" type="passenger" route="upper_to_south" depart="28.5"/>
    <vehicle id="veh61" type="passenger" route="middle_east" depart="28.97"/>
    <vehicle id="veh62" type="passenger" route="upper_west" depart="29.45"/>
    <vehicle id="veh63" type="passenger" route="upper_west" depart="29.92"/>
    <vehicle id="veh64" type="passenger" route="east_to_upper_west" depart="30.4"/>
    <vehicle id="veh65" type="passenger" route="middle_east" depart="30.87"/>
    <vehicle id="veh66" type="passenger" route="lower_east" depart="31.35"/>
    <vehicle id="veh67" type="passenger" route="upper_to_south" depart="31.82"/>
    <vehicle id="veh68" type="passenger" route="middle_west" depart="32.3"/>
    <vehicle id="veh69" type="passenger" route="north_south" depart="32.77"/>
    <vehicle id="veh70" type="passenger" route="east_to_upper_west" depart="33.25"/>
    <vehicle id="veh71" type="passenger" route="middle_east" depart="33.72"/>
    <vehicle id="veh72" type="passenger" route="middle_east" depart="34.2"/>
    <vehicle id="veh73" type="emergency" route="north_south" depart="34.67"/>
    <vehicle id="veh74" type="passenger" route="lower_to_north" depart="35.15"/>
    <vehicle id="veh75" type="passenger" route="west_middle_south" depart="35.62"/>
    <vehicle id="veh76" type="passenger" route="middle_east" depart="36.09"/>
    <vehicle id="veh77" type="passenger" route="east_to_upper_west" depart="36.57"/>
    <vehicle id="veh78" type="passenger" route="north_south" depart="37.04"/>
    <vehicle id="veh79" type="passenger" route="upper_west" depart="37.52"/>
    <vehicle id="veh80" type="passenger" route="middle_diagonal_east" depart="37.99"/>
    <vehicle id="veh81" type="passenger" route="lower_to_middle_east" depart="38.47"/>
    <vehicle id="veh82" type="passenger" route="south_north" depart="38.94"/>
    <vehicle id="veh83" type="passenger" route="west_middle_south" depart="39.42"/>
    <vehicle id="veh84" type="passenger" route="middle_west" depart="39.89"/>
    <vehicle id="veh85" type="passenger" route="south_north" depart="40.37"/>
    <vehicle id="veh86" type="passenger" route="middle_west" depart="40.84"/>
    <vehicle id="veh87" type="passenger" route="west_middle_south" depart="41.32"/>
    <vehicle id="veh88" type="passenger" route="north_south" depart="41.79"/>
    <vehicle id="veh89" type="passenger" route="middle_west" depart="42.27"/>
    <vehicle id="veh90" type="passenger" route="middle_west" depart="42.74"/>
    <vehicle id="veh91" type="passenger" route="lower_to_middle_east" depart="43.22"/>
    <vehicle id="veh92" type="passenger" route="lower_to_north" depart="43.69"/>
    <vehicle id="veh93" type="passenger" route="north_middle_east" depart="44.17"/>
    <vehicle id="veh94" type="passenger" route="north_middle_east" depart="44.64"/>
    <vehicle id="veh95" type="passenger" route="north_south" depart="45.12"/>
    <vehicle id="veh96" type="passenger" route="north_middle_east" depart="45.59"/>
    <vehicle id="veh97" type="passenger" route="south_north" depart="46.07"/>
    <vehicle id="veh98" type="passenger" route="lower_to_north" depart="46.54"/>
    <vehicle id="veh99" type="passenger" route="lower_to_middle_east" depart="47.02"/>
    <vehicle id="veh100" type="passenger" route="west_middle_south" depart="47.49"/>
    <vehicle id="veh101" type="passenger" route="west_middle_south" depart="47.97"/>
    <vehicle id="veh102" type="passenger" route="lower_to_north" depart="48.44"/>
    <vehicle id="veh103" type="passenger" route="lower_west" depart="48.92"/>
    <vehicle id="veh104" type="passenger" route="east_to_upper_west" depart="49.39"/>
    <vehicle id="veh105" type="passenger" route="north_middle_east" depart="49.87"/>
    <vehicle id="veh106" type="passenger" route="middle_east" depart="50.34"/>
    <vehicle id="veh107" type="passenger" route="south_north" depart="50.82"/>
    <vehicle id="veh108" type="passenger" route="north_south" depart="51.29"/>
    <vehicle id="veh109" type="passenger" route="lower_to_middle_east" depart="51.77"/>
    <vehicle id="veh110" type="passenger" route="lower_west" depart="52.24"/>
    <vehicle id="veh111" type="passenger" route="east_to_upper_west" depart="52.72"/>
    <vehicle id="veh112" type="passenger" route="middle_west" depart="53.19"/>
    <vehicle id="veh113" type="passenger" route="south_north" depart="53.67"/>
    <vehicle id="veh114" type="passenger" route="lower_west" depart="54.14"/>
    <vehicle id="veh115" type="passenger" route="east_to_south" depart="54.62"/>
    <vehicle id="veh116" type="passenger" route="east_to_south" depart="55.09"/>
    <vehicle id="veh117" type="passenger" route="upper_west" depart="55.57"/>
    <vehicle id="veh118" type="passenger" route="lower_to_middle_east" depart="56.04"/>
    <vehicle id="veh119" type="passenger" route="south_north" depart="56.52"/>
    <vehicle id="veh120" type="passenger" route="north_south" depart="56.99"/>
    <vehicle id="veh121" type="passenger" route="west_middle_south" depart="57.47"/>
    <vehicle id="veh122" type="passenger" route="middle_west" depart="57.94"/>
    <vehicle id="veh123" type="passenger" route="middle_east" depart="58.42"/>
    <vehicle id="veh124" type="passenger" route="north_south" depart="58.89"/>
    <vehicle id="veh125" type="passenger" route="south_north" depart="59.37"/>
    <vehicle id="veh126" type="passenger" route="lower_to_north" depart="59.84"/>
    <vehicle id="veh127" type="passenger" route="lower_to_north" depart="60.32"/>
    <vehicle id="veh128" type="passenger" route="north_south" depart="60.79"/>
    <vehicle id="veh129" type="passenger" route="lower_to_north" depart="61.27"/>
    <vehicle id="veh130" type="passenger" route="south_north" depart="61.74"/>
    <vehicle id="veh131" type="passenger" route="north_south" depart="62.22"/>
    <vehicle id="veh132" type="passenger" route="upper_to_south" depart="62.69"/>
    <vehicle id="veh133" type="passenger" route="east_to_south" depart="63.17"/>
    <vehicle id="veh134" type="passenger" route="north_middle_east" depart="63.64"/>
    <vehicle id="veh135" type="passenger" route="east_to_south" depart="64.12"/>
    <vehicle id="veh136" type="passenger" route="lower_to_north" depart="64.59"/>
    <vehicle id="veh137" type="passenger" route="middle_east" depart="65.07"/>
    <vehicle id="veh138" type="passenger" route="upper_east" depart="65.54"/>
    <vehicle id="veh139" type="passenger" route="middle_west" depart="66.02"/>
    <vehicle id="veh140" type="passenger" route="east_to_south" depart="66.49"/>
    <vehicle id="veh141" type="passenger" route="north_middle_east" depart="66.97"/>
    <vehicle id="veh142" type="passenger" route="east_to_upper_west" depart="67.44"/>
    <vehicle id="veh143" type="passenger" route="middle_west" depart="67.92"/>
    <vehicle id="veh144" type="passenger" route="south_north" depart="68.39"/>
    <vehicle id="veh145" type="passenger" route="south_north" depart="68.87"/>
    <vehicle id="veh146" type="passenger" route="middle_west" depart="69.34"/>
    <vehicle id="veh147" type="passenger" route="middle_west" depart="69.82"/>
    <vehicle id="veh148" type="passenger" route="north_middle_east" depart="70.29"/>
    <vehicle id="veh149" type="passenger" route="middle_west" depart="70.77"/>
    <vehicle id="veh150" type="passenger" route="middle_east" depart="71.24"/>
    <vehicle id="veh151" type="passenger" route="east_to_upper_west" depart="71.72"/>
    <vehicle id="veh152" type="passenger" route="middle_east" depart="72.19"/>
    <vehicle id="veh153" type="passenger" route="north_south" depart="72.66"/>
    <vehicle id="veh154" type="passenger" route="lower_to_north" depart="73.14"/>
    <vehicle id="veh155" type="passenger" route="north_south" depart="73.61"/>
    <vehicle id="veh156" type="passenger" route="west_middle_south" depart="74.09"/>
    <vehicle id="veh157" type="passenger" route="middle_west" depart="74.56"/>
    <vehicle id="veh158" type="passenger" route="north_middle_east" depart="75.04"/>
    <vehicle id="veh159" type="passenger" route="middle_east" depart="75.51"/>
    <vehicle id="veh160" type="passenger" route="middle_east" depart="75.99"/>
    <vehicle id="veh161" type="passenger" route="north_south" depart="76.46"/>
    <vehicle id="veh162" type="passenger" route="lower_to_north" depart="76.94"/>
    <vehicle id="veh163" type="passenger" route="north_south" depart="77.41"/>
    <vehicle id="veh164" type="passenger" route="south_north" depart="77.89"/>
    <vehicle id="veh165" type="passenger" route="east_to_upper_west" depart="78.36"/>
    <vehicle id="veh166" type="passenger" route="north_south" depart="78.84"/>
    <vehicle id="veh167" type="passenger" route="south_north" depart="79.31"/>
    <vehicle id="veh168" type="passenger" route="south_north" depart="79.79"/>
    <vehicle id="veh169" type="passenger" route="middle_west" depart="80.26"/>
    <vehicle id="veh170" type="passenger" route="south_north" depart="80.74"/>
    <vehicle id="veh171" type="passenger" route="south_north" depart="81.21"/>
    <vehicle id="veh172" type="emergency" route="middle_west" depart="81.69"/>
    <vehicle id="veh173" type="passenger" route="west_middle_south" depart="82.16"/>
    <vehicle id="veh174" type="passenger" route="upper_to_south" depart="82.64"/>
    <vehicle id="veh175" type="passenger" route="lower_to_north" depart="83.11"/>
    <vehicle id="veh176" type="passenger" route="north_south" depart="83.59"/>
    <vehicle id="veh177" type="passenger" route="middle_west" depart="84.06"/>
    <vehicle id="veh178" type="passenger" route="north_south" depart="84.54"/>
    <vehicle id="veh179" type="passenger" route="middle_diagonal_east" depart="85.01"/>
    <vehicle id="veh180" type="passenger" route="south_north" depart="85.49"/>
    <vehicle id="veh181" type="passenger" route="north_middle_east" depart="85.96"/>
    <vehicle id="veh182" type="passenger" route="middle_east" depart="86.44"/>
    <vehicle id="veh183" type="passenger" route="middle_west" depart="86.91"/>
    <vehicle id="veh184" type="passenger" route="north_south" depart="87.39"/>
    <vehicle id="veh185" type="passenger" route="north_south" depart="87.86"/>
    <vehicle id="veh186" type="passenger" route="lower_to_north" depart="88.34"/>
    <vehicle id="veh187" type="passenger" route="lower_to_north" depart="88.81"/>
    <vehicle id="veh188" type="passenger" route="upper_west" depart="89.29"/>
    <vehicle id="veh189" type="passenger" route="lower_to_north" depart="89.76"/>
    <vehicle id="veh190" type="passenger" route="lower_west" depart="90.24"/>
    <vehicle id="veh191" type="passenger" route="lower_west" depart="90.71"/>
    <vehicle id="veh192" type="passenger" route="west_middle_south" depart="91.19"/>
    <vehicle id="veh193" type="passenger" route="north_south" depart="91.66"/>
    <vehicle id="veh194" type="passenger" route="north_middle_east" depart="92.14"/>
    <vehicle id="veh195" type="passenger" route="north_south" depart="92.61"/>
    <vehicle id="veh196" type="passenger" route="north_south" depart="93.09"/>
    <vehicle id="veh197" type="passenger" route="north_south" depart="93.56"/>
    <vehicle id="veh198" type="passenger" route="north_middle_east" depart="94.04"/>
    <vehicle id="veh199" type="passenger" route="east_to_upper_west" depart="94.51"/>
    <vehicle id="veh200" type="passenger" route="north_south" depart="94.99"/>
    <vehicle id="veh201" type="passenger" route="middle_west" depart="95.46"/>
    <vehicle id="veh202" type="passenger" route="lower_west" depart="95.94"/>
    <vehicle id="veh203" type="passenger" route="north_south" depart="96.41"/>
    <vehicle id="veh204" type="passenger" route="middle_west" depart="96.89"/>
    <vehicle id="veh205" type="passenger" route="west_middle_south" depart="97.36"/>
    <vehicle id="veh206" type="passenger" route="west_middle_south" depart="97.84"/>
    <vehicle id="veh207" type="passenger" route="east_to_upper_west" depart="98.31"/>
    <vehicle id="veh208" type="passenger" route="lower_to_middle_east" depart="98.79"/>
    <vehicle id="veh209" type="passenger" route="upper_to_south" depart="99.26"/>
    <vehicle id="veh210" type="passenger" route="east_to_upper_west" depart="99.74"/>
    <vehicle id="veh211" type="passenger" route="middle_east" depart="100.21"/>
    <vehicle id="veh212" type="passenger" route="north_south" depart="100.69"/>
    <vehicle id="veh213" type="passenger" route="west_middle_south" depart="101.16"/>
    <vehicle id="veh214" type="passenger" route="east_to_south" depart="101.64"/>
    <vehicle id="veh215" type="passenger" route="north_south" depart="102.11"/>
    <vehicle id="veh216" type="passenger" route="south_north" depart="102.59"/>
    <vehicle id="veh217" type="passenger" route="west_middle_south" depart="103.06"/>
    <vehicle id="veh218" type="passenger" route="north_south" depart="103.54"/>
    <vehicle id="veh219" type="passenger" route="south_north" depart="104.01"/>
    <vehicle id="veh220" type="passenger" route="east_to_upper_west" depart="104.49"/>
    <vehicle id="veh221" type="passenger" route="north_south" depart="104.96"/>
    <vehicle id="veh222" type="passenger" route="east_to_upper_west" depart="105.44"/>
    <vehicle id="veh223" type="passenger" route="lower_to_middle_east" depart="105.91"/>
    <vehicle id="veh224" type="passenger" route="north_middle_east" depart="106.39"/>
    <vehicle id="veh225" type="passenger" route="south_north" depart="106.86"/>
    <vehicle id="veh226" type="passenger" route="north_middle_east" depart="107.34"/>
    <vehicle id="veh227" type="passenger" route="north_south" depart="107.81"/>
    <vehicle id="veh228" type="passenger" route="middle_west" depart="108.28"/>
    <vehicle id="veh229" type="passenger" route="north_south" depart="108.76"/>
    <vehicle id="veh230" type="passenger" route="north_middle_east" depart="109.23"/>
    <vehicle id="veh231" type="passenger" route="north_south" depart="109.71"/>
    <vehicle id="veh232" type="passenger" route="lower_to_north" depart="110.18"/>
    <vehicle id="veh233" type="passenger" route="west_middle_south" depart="110.66"/>
    <vehicle id="veh234" type="passenger" route="middle_east" depart="111.13"/>
    <vehicle id="veh235" type="passenger" route="east_to_south" depart="111.61"/>
    <vehicle id="veh236" type="passenger" route="middle_diagonal_east" depart="112.08"/>
    <vehicle id="veh237" type="passenger" route="lower_to_north" depart="112.56"/>
    <vehicle id="veh238" type="passenger" route="middle_east" depart="113.03"/>
    <vehicle id="veh239" type="passenger" route="lower_to_north" depart="113.51"/>
    <vehicle id="veh240" type="passenger" route="south_north" depart="113.98"/>
    <vehicle id="veh241" type="passenger" route="east_to_south" depart="114.46"/>
    <vehicle id="veh242" type="passenger" route="east_to_upper_west" depart="114.93"/>
    <vehicle id="veh243" type="passenger" route="north_south" depart="115.41"/>
    <vehicle id="veh244" type="passenger" route="middle_west" depart="115.88"/>
    <vehicle id="veh245" type="passenger" route="lower_east" depart="116.36"/>
    <vehicle id="veh246" type="passenger" route="west_middle_south" depart="116.83"/>
    <vehicle id="veh247" type="passenger" route="south_north" depart="117.31"/>
    <vehicle id="veh248" type="passenger" route="middle_east" depart="117.78"/>
    <vehicle id="veh249" type="passenger" route="east_to_upper_west" depart="118.26"/>
    <vehicle id="veh250" type="passenger" route="lower_west" depart="118.73"/>
    <vehicle id="veh251" type="passenger" route="middle_west" depart="119.21"/>
    <vehicle id="veh252" type="emergency" route="north_middle_east" depart="119.68"/>
    <vehicle id="veh253" type="passenger" route="lower_east" depart="120.16"/>
    <vehicle id="veh254" type="passenger" route="upper_to_south" depart="120.63"/>
    <vehicle id="veh255" type="passenger" route="middle_diagonal_east" depart="121.11"/>
    <vehicle id="veh256" type="passenger" route="west_middle_south" depart="121.58"/>
    <vehicle id="veh257" type="passenger" route="east_to_south" depart="122.06"/>
    <vehicle id="veh258" type="passenger" route="lower_to_north" depart="122.53"/>
    <vehicle id="veh259" type="passenger" route="east_to_upper_west" depart="123.01"/>
    <vehicle id="veh260" type="passenger" route="middle_west" depart="123.48"/>
    <vehicle id="veh261" type="passenger" route="east_to_south" depart="123.96"/>
    <vehicle id="veh262" type="passenger" route="south_north" depart="124.43"/>
    <vehicle id="veh263" type="passenger" route="north_middle_east" depart="124.91"/>
    <vehicle id="veh264" type="passenger" route="south_north" depart="125.38"/>
    <vehicle id="veh265" type="passenger" route="middle_east" depart="125.86"/>
    <vehicle id="veh266" type="passenger" route="middle_east" depart="126.33"/>
    <vehicle id="veh267" type="passenger" route="middle_east" depart="126.81"/>
    <vehicle id="veh268" type="passenger" route="upper_to_south" depart="127.28"/>
    <vehicle id="veh269" type="passenger" route="west_middle_south" depart="127.76"/>
    <vehicle id="veh270" type="passenger" route="middle_east" depart="128.23"/>
    <vehicle id="veh271" type="passenger" route="upper_east" depart="128.71"/>
    <vehicle id="veh272" type="passenger" route="lower_west" depart="129.18"/>
    <vehicle id="veh273" type="passenger" route="upper_west" depart="129.66"/>
    <vehicle id="veh274" type="passenger" route="lower_to_middle_east" depart="130.13"/>
    <vehicle id="veh275" type="passenger" route="lower_to_middle_east" depart="130.61"/>
    <vehicle id="veh276" type="passenger" route="lower_to_north" depart="131.08"/>
    <vehicle id="veh277" type="passenger" route="east_to_upper_west" depart="131.56"/>
    <vehicle id="veh278" type="passenger" route="east_to_south" depart="132.03"/>
    <vehicle id="veh279" type="passenger" route="lower_to_north" depart="132.51"/>
    <vehicle id="veh280" type="emergency" route="east_to_upper_west" depart="132.98"/>
    <vehicle id="veh281" type="passenger" route="middle_west" depart="133.46"/>
    <vehicle id="veh282" type="passenger" route="west_middle_south" depart="133.93"/>
    <vehicle id="veh283" type="passenger" route="north_middle_east" depart="134.41"/>
    <vehicle id="veh284" type="passenger" route="middle_east" depart="134.88"/>
    <vehicle id="veh285" type="passenger" route="middle_west" depart="135.36"/>
    <vehicle id="veh286" type="passenger" route="north_middle_east" depart="135.83"/>
    <vehicle id="veh287" type="passenger" route="lower_east" depart="136.31"/>
    <vehicle id="veh288" type="passenger" route="middle_east" depart="136.78"/>
    <vehicle id="veh289" type="passenger" route="east_to_upper_west" depart="137.26"/>
    <vehicle id="veh290" type="passenger" route="middle_east" depart="137.73"/>
    <vehicle id="veh291" type="passenger" route="middle_west" depart="138.21"/>
    <vehicle id="veh292" type="passenger" route="lower_to_middle_east" depart="138.68"/>
    <vehicle id="veh293" type="passenger" route="upper_east" depart="139.16"/>
    <vehicle id="veh294" type="passenger" route="east_to_upper_west" depart="139.63"/>
    <vehicle id="veh295" type="passenger" route="lower_east" depart="140.11"/>
    <vehicle id="veh296" type="passenger" route="middle_west" depart="140.58"/>
    <vehicle id="veh297" type="passenger" route="lower_east" depart="141.06"/>
    <vehicle id="veh298" type="passenger" route="north_south" depart="141.53"/>
    <vehicle id="veh299" type="emergency" route="upper_east" depart="142.01"/>
    <vehicle id="veh300" type="passenger" route="upper_to_south" depart="142.48"/>
    <vehicle id="veh301" type="passenger" route="middle_west" depart="142.96"/>
    <vehicle id="veh302" type="passenger" route="south_north" depart="143.43"/>
    <vehicle id="veh303" type="passenger" route="upper_to_south" depart="143.91"/>
    <vehicle id="veh304" type="passenger" route="west_middle_south" depart="144.38"/>
    <vehicle id="veh305" type="passenger" route="lower_to_north" depart="144.85"/>
    <vehicle id="veh306" type="passenger" route="middle_east" depart="145.33"/>
    <vehicle id="veh307" type="passenger" route="upper_to_south" depart="145.8"/>
    <vehicle id="veh308" type="passenger" route="middle_west" depart="146.28"/>
    <vehicle id="veh309" type="passenger" route="lower_west" depart="146.75"/>
    <vehicle id="veh310" type="passenger" route="north_south" depart="147.23"/>
    <vehicle id="veh311" type="emergency" route="lower_east" depart="147.7"/>
    <vehicle id="veh312" type="passenger" route="lower_to_north" depart="148.18"/>
    <vehicle id="veh313" type="passenger" route="west_middle_south" depart="148.65"/>
    <vehicle id="veh314" type="passenger" route="north_middle_east" depart="149.13"/>
    <vehicle id="veh315" type="passenger" route="north_middle_east" depart="149.6"/>
    <vehicle id="veh316" type="passenger" route="south_north" depart="150.08"/>
    <vehicle id="veh317" type="passenger" route="west_middle_south" depart="150.55"/>
    <vehicle id="veh318" type="passenger" route="west_middle_south" depart="151.03"/>
    <vehicle id="veh319" type="passenger" route="middle_west" depart="151.5"/>
    <vehicle id="veh320" type="passenger" route="upper_to_south" depart="151.98"/>
    <vehicle id="veh321" type="passenger" route="middle_west" depart="152.45"/>
    <vehicle id="veh322" type="passenger" route="south_north" depart="152.93"/>
    <vehicle id="veh323" type="passenger" route="middle_diagonal_east" depart="153.4"/>
    <vehicle id="veh324" type="passenger" route="middle_east" depart="153.88"/>
    <vehicle id="veh325" type="passenger" route="lower_east" depart="154.35"/>
    <vehicle id="veh326" type="passenger" route="lower_to_middle_east" depart="154.83"/>
    <vehicle id="veh327" type="passenger" route="west_middle_south" depart="155.3"/>
    <vehicle id="veh328" type="passenger" route="lower_east" depart="155.78"/>
    <vehicle id="veh329" type="passenger" route="lower_to_north" depart="156.25"/>
    <vehicle id="veh330" type="passenger" route="south_north" depart="156.73"/>
    <vehicle id="veh331" type="passenger" route="lower_to_middle_east" depart="157.2"/>
    <vehicle id="veh332" type="passenger" route="middle_west" depart="157.68"/>
    <vehicle id="veh333" type="passenger" route="middle_west" depart="158.15"/>
    <vehicle id="veh334" type="passenger" route="middle_diagonal_east" depart="158.63"/>
    <vehicle id="veh335" type="passenger" route="middle_east" depart="159.1"/>
    <vehicle id="veh336" type="passenger" route="north_middle_east" depart="159.58"/>
    <vehicle id="veh337" type="passenger" route="lower_to_middle_east" depart="160.05"/>
    <vehicle id="veh338" type="passenger" route="east_to_south" depart="160.53"/>
    <vehicle id="veh339" type="passenger" route="south_north" depart="161.0"/>
    <vehicle id="veh340" type="passenger" route="middle_east" depart="161.48"/>
    <vehicle id="veh341" type="passenger" route="lower_east" depart="161.95"/>
    <vehicle id="veh342" type="passenger" route="north_middle_east" depart="162.43"/>
    <vehicle id="veh343" type="passenger" route="east_to_south" depart="162.9"/>
    <vehicle id="veh344" type="passenger" route="east_to_south" depart="163.38"/>
    <vehicle id="veh345" type="passenger" route="south_north" depart="163.85"/>
    <vehicle id="veh346" type="passenger" route="east_to_south" depart="164.33"/>
    <vehicle id="veh347" type="passenger" route="lower_east" depart="164.8"/>
    <vehicle id="veh348" type="passenger" route="east_to_south" depart="165.28"/>
    <vehicle id="veh349" type="passenger" route="middle_east" depart="165.75"/>