<?xml version="1.0" encoding="UTF-8"?>

<!-- generated on 2026-04-12T09:30:27.340832+05:30 by Eclipse SUMO netconvert 1.26.0
<netconvertConfiguration xmlns:xsi="http://www.w3.org/2001/XMLSchema-instance" xsi:noNamespaceSchemaLocation="http://sumo.dlr.de/xsd/netconvertConfiguration.xsd">

    <input>
        <node-files value="C:\Users\santhosh\OneDrive\Desktop\trafiic pro\web_runs\20260412_093026_887256\area.nod.xml"/>
        <edge-files value="C:\Users\santhosh\OneDrive\Desktop\trafiic pro\web_runs\20260412_093026_887256\area.edg.xml"/>
    </input>

    <output>
        <output-file value="C:\Users\santhosh\OneDrive\Desktop\trafiic pro\web_runs\20260412_093026_887256\area.net.xml"/>
    </output>

    <building_defaults>
        <default.lanewidth value="1.8"/>
    </building_defaults>

    <junctions>
        <junctions.corner-detail value="0"/>
    </junctions>

</netconvertConfiguration>
-->

<net version="1.20" limitTurnSpeed="5.50" xmlns:xsi="http://www.w3.org/2001/XMLSchema-instance" xsi:noNamespaceSchemaLocation="http://sumo.dlr.de/xsd/net_file.xsd">

    <location netOffset="0.00,0.00" convBoundary="0.00,0.00,900.00,500.00" origBoundary="0.00,0.00,900.00,500.00" projParameter="!"/>

    <edge id=":E0_0" function="internal">
        <lane id=":E0_0_0" index="0" speed="2.74" length="2.63" width="1.80" shape="900.00,136.68 900.67,137.13 900.90,137.58 900.67,138.03 900.00,138.48"/>
    </edge>
    <edge id=":E1_0" function="internal">
        <lane id=":E1_0_0" index="0" speed="2.74" length="2.63" width="1.80" shape="900.00,395.43 900.67,395.88 900.90,396.33 900.67,396.78 900.00,397.23"/>
    </edge>
    <edge id=":J0_0_0" function="internal">
        <lane id=":J0_0_0_0" index="0" speed="6.64" length="9.03" width="1.80" shape="147.53,107.37 145.23,107.69 143.48,108.73 142.28,110.49 141.64,112.95"/>
    </edge>
    <edge id=":J0_0_1" function="internal">
        <lane id=":J0_0_1_0" index="0" speed="13.90" length="15.63" width="1.80" shape="147.53,107.37 131.91,107.28"/>
        <lane id=":J0_0_1_1" index="1" speed="13.90" length="15.63" width="1.80" shape="147.55,105.57 131.91,105.48"/>
    </edge>
    <edge id=":J0_0_3" function="internal">
        <lane id=":J0_0_3_0" index="0" speed="7.78" length="6.03" width="1.80" shape="147.55,105.57 143.85,104.99 141.90,103.79"/>
    </edge>
    <edge id=":J0_0_4" function="internal">
        <lane id=":J0_0_4_0" index="0" speed="2.74" length="2.23" width="1.80" shape="147.55,105.57 146.88,105.11 146.66,104.66 146.89,104.21 147.23,103.99"/>
    </edge>
    <edge id=":J0_0_20" function="internal">
        <lane id=":J0_0_20_0" index="0" speed="7.78" length="7.67" width="1.80" shape="141.90,103.79 141.21,103.37 139.63,100.70 139.10,96.98"/>
    </edge>
    <edge id=":J0_0_21" function="internal">
        <lane id=":J0_0_21_0" index="0" speed="2.74" length="0.40" width="1.80" shape="147.23,103.99 147.57,103.77"/>
    </edge>
    <edge id=":J0_0_5" function="internal">
        <lane id=":J0_0_5_0" index="0" speed="6.01" length="7.94" width="1.80" shape="142.70,96.98 143.01,99.14 143.92,100.69 145.45,101.63 147.59,101.97"/>
    </edge>
    <edge id=":J0_0_6" function="internal">
        <lane id=":J0_0_6_0" index="0" speed="13.90" length="15.91" width="1.80" shape="142.70,96.98 142.68,101.74 142.55,104.99 142.24,108.23 141.64,112.95"/>
        <lane id=":J0_0_6_1" index="1" speed="13.90" length="15.91" width="1.80" shape="140.90,96.98 140.88,101.67 140.76,104.88 140.45,108.07 139.86,112.72"/>
    </edge>
    <edge id=":J0_0_8" function="internal">
        <lane id=":J0_0_8_0" index="0" speed="7.86" length="6.05" width="1.80" shape="140.90,96.98 140.34,100.70 139.11,102.63"/>
    </edge>
    <edge id=":J0_0_9" function="internal">
        <lane id=":J0_0_9_0" index="0" speed="2.74" length="2.25" width="1.80" shape="140.90,96.98 140.45,97.66 140.00,97.88 139.55,97.66 139.31,97.29"/>
    </edge>
    <edge id=":J0_0_22" function="internal">
        <lane id=":J0_0_22_0" index="0" speed="7.86" length="8.05" width="1.80" shape="139.11,102.63 138.65,103.36 135.84,104.95 131.91,105.48"/>
    </edge>
    <edge id=":J0_0_23" function="internal">
        <lane id=":J0_0_23_0" index="0" speed="2.74" length="0.38" width="1.80" shape="139.31,97.29 139.10,96.98"/>
    </edge>
    <edge id=":J0_0_10" function="internal">
        <lane id=":J0_0_10_0" index="0" speed="6.11" length="8.31" width="1.80" shape="131.91,101.88 134.27,101.57 135.95,100.66 136.96,99.12 137.30,96.98"/>
    </edge>
    <edge id=":J0_0_11" function="internal">
        <lane id=":J0_0_11_0" index="0" speed="13.90" length="15.67" width="1.80" shape="131.91,101.88 147.59,101.97"/>
        <lane id=":J0_0_11_1" index="1" speed="13.90" length="15.67" width="1.80" shape="131.91,103.68 147.57,103.77"/>
    </edge>
    <edge id=":J0_0_13" function="internal">
        <lane id=":J0_0_13_0" index="0" speed="7.53" length="6.17" width="1.80" shape="131.91,103.68 135.82,104.25 137.68,105.44"/>
    </edge>
    <edge id=":J0_0_14" function="internal">
        <lane id=":J0_0_14_0" index="0" speed="2.74" length="2.25" width="1.80" shape="131.91,103.68 132.58,104.13 132.81,104.58 132.58,105.03 132.22,105.27"/>
    </edge>
    <edge id=":J0_0_24" function="internal">
        <lane id=":J0_0_24_0" index="0" speed="7.53" length="8.01" width="1.80" shape="137.68,105.44 138.45,105.94 139.80,108.77 139.86,112.72"/>
    </edge>
    <edge id=":J0_0_25" function="internal">
        <lane id=":J0_0_25_0" index="0" speed="2.74" length="0.37" width="1.80" shape="132.22,105.27 131.91,105.48"/>
    </edge>
    <edge id=":J0_0_15" function="internal">
        <lane id=":J0_0_15_0" index="0" speed="5.69" length="7.81" width="1.80" shape="136.29,112.26 136.25,110.08 135.51,108.53 134.06,107.59 131.91,107.28"/>
    </edge>
    <edge id=":J0_0_16" function="internal">
        <lane id=":J0_0_16_0" index="0" speed="13.90" length="15.45" width="1.80" shape="136.29,112.26 136.86,107.75 137.16,104.64 137.28,101.53 137.30,96.98"/>
        <lane id=":J0_0_16_1" index="1" speed="13.90" length="15.45" width="1.80" shape="138.07,112.49 138.65,107.91 138.96,104.76 139.08,101.60 139.10,96.98"/>
    </edge>
    <edge id=":J0_0_18" function="internal">
        <lane id=":J0_0_18_0" index="0" speed="8.29" length="6.53" width="1.80" shape="138.07,112.49 139.09,108.64 140.55,106.56"/>
    </edge>
    <edge id=":J0_0_19" function="internal">
        <lane id=":J0_0_19_0" index="0" speed="2.74" length="2.24" width="1.80" shape="138.07,112.49 138.60,111.88 139.08,111.72 139.50,112.00 139.68,112.37"/>
    </edge>
    <edge id=":J0_0_26" function="internal">
        <lane id=":J0_0_26_0" index="0" speed="8.29" length="7.83" width="1.80" shape="140.55,106.56 141.01,105.90 143.84,104.28 147.57,103.77"/>
    </edge>
    <edge id=":J0_0_27" function="internal">
        <lane id=":J0_0_27_0" index="0" speed="2.74" length="0.39" width="1.80" shape="139.68,112.37 139.86,112.72"/>
    </edge>
    <edge id=":J0_1_0" function="internal">
        <lane id=":J0_1_0_0" index="0" speed="5.81" length="7.85" width="1.80" shape="350.64,110.46 348.47,110.53 346.89,111.30 345.91,112.75 345.53,114.89"/>
    </edge>
    <edge id=":J0_1_1" function="internal">
        <lane id=":J0_1_1_0" index="0" speed="13.90" length="15.38" width="1.80" shape="350.64,110.46 346.13,109.98 343.03,109.73 339.93,109.61 335.39,109.54"/>
        <lane id=":J0_1_1_1" index="1" speed="13.90" length="15.38" width="1.80" shape="350.83,108.67 346.27,108.19 343.14,107.93 340.00,107.81 335.41,107.74"/>
    </edge>
    <edge id=":J0_1_3" function="internal">
        <lane id=":J0_1_3_0" index="0" speed="8.22" length="6.36" width="1.80" shape="350.83,108.67 347.06,107.73 345.03,106.32"/>
    </edge>
    <edge id=":J0_1_4" function="internal">
        <lane id=":J0_1_4_0" index="0" speed="2.74" length="2.24" width="1.80" shape="350.83,108.67 350.21,108.15 350.03,107.67 350.31,107.25 350.68,107.06"/>
    </edge>
    <edge id=":J0_1_20" function="internal">
        <lane id=":J0_1_20_0" index="0" speed="8.22" length="7.85" width="1.80" shape="345.03,106.32 344.36,105.86 342.74,103.04 342.20,99.29"/>
    </edge>
    <edge id=":J0_1_21" function="internal">
        <lane id=":J0_1_21_0" index="0" speed="2.74" length="0.39" width="1.80" shape="350.68,107.06 351.02,106.88"/>
    </edge>
    <edge id=":J0_1_5" function="internal">
        <lane id=":J0_1_5_0" index="0" speed="6.55" length="8.85" width="1.80" shape="345.80,99.29 346.14,101.61 347.15,103.35 348.85,104.51 351.22,105.09"/>
    </edge>
    <edge id=":J0_1_6" function="internal">
        <lane id=":J0_1_6_0" index="0" speed="13.90" length="15.57" width="1.80" shape="345.80,99.29 345.53,114.89"/>
        <lane id=":J0_1_6_1" index="1" speed="13.90" length="15.57" width="1.80" shape="344.00,99.29 343.73,114.83"/>
    </edge>
    <edge id=":J0_1_8" function="internal">
        <lane id=":J0_1_8_0" index="0" speed="7.74" length="6.28" width="1.80" shape="344.00,99.29 343.46,103.02 342.16,105.17"/>
    </edge>
    <edge id=":J0_1_9" function="internal">
        <lane id=":J0_1_9_0" index="0" speed="2.74" length="2.28" width="1.80" shape="344.00,99.29 343.55,99.96 343.10,100.19 342.65,99.96 342.39,99.58"/>
    </edge>
    <edge id=":J0_1_22" function="internal">
        <lane id=":J0_1_22_0" index="0" speed="7.74" length="7.50" width="1.80" shape="342.16,105.17 341.85,105.68 339.17,107.25 335.41,107.74"/>
    </edge>
    <edge id=":J0_1_23" function="internal">
        <lane id=":J0_1_23_0" index="0" speed="2.74" length="0.35" width="1.80" shape="342.39,99.58 342.20,99.29"/>
    </edge>
    <edge id=":J0_1_10" function="internal">
        <lane id=":J0_1_10_0" index="0" speed="5.96" length="7.93" width="1.80" shape="335.45,104.14 337.62,103.86 339.16,102.96 340.09,101.43 340.40,99.29"/>
    </edge>
    <edge id=":J0_1_11" function="internal">
        <lane id=":J0_1_11_0" index="0" speed="13.90" length="15.72" width="1.80" shape="335.45,104.14 340.14,104.21 343.35,104.33 346.55,104.60 351.22,105.09"/>
        <lane id=":J0_1_11_1" index="1" speed="13.90" length="15.72" width="1.80" shape="335.43,105.94 340.07,106.01 343.24,106.13 346.41,106.39 351.02,106.88"/>
    </edge>
    <edge id=":J0_1_13" function="internal">
        <lane id=":J0_1_13_0" index="0" speed="7.75" length="6.12" width="1.80" shape="335.43,105.94 339.17,106.53 341.13,107.78"/>
    </edge>
    <edge id=":J0_1_14" function="internal">
        <lane id=":J0_1_14_0" index="0" speed="2.74" length="2.25" width="1.80" shape="335.43,105.94 336.10,106.40 336.32,106.85 336.09,107.30 335.73,107.53"/>
    </edge>
    <edge id=":J0_1_24" function="internal">
        <lane id=":J0_1_24_0" index="0" speed="7.75" length="7.82" width="1.80" shape="341.13,107.78 341.81,108.21 343.33,110.98 343.73,114.83"/>
    </edge>
    <edge id=":J0_1_25" function="internal">
        <lane id=":J0_1_25_0" index="0" speed="2.74" length="0.38" width="1.80" shape="335.73,107.53 335.41,107.74"/>
    </edge>
    <edge id=":J0_1_15" function="internal">
        <lane id=":J0_1_15_0" index="0" speed="5.97" length="8.04" width="1.80" shape="340.14,114.71 339.90,112.47 339.04,110.86 337.53,109.89 335.39,109.54"/>
    </edge>
    <edge id=":J0_1_16" function="internal">
        <lane id=":J0_1_16_0" index="0" speed="13.90" length="15.45" width="1.80" shape="340.14,114.71 340.40,99.29"/>
        <lane id=":J0_1_16_1" index="1" speed="13.90" length="15.45" width="1.80" shape="341.93,114.77 342.20,99.29"/>
    </edge>
    <edge id=":J0_1_18" function="internal">
        <lane id=":J0_1_18_0" index="0" speed="7.62" length="5.93" width="1.80" shape="341.93,114.77 342.61,110.96 343.77,109.25"/>
    </edge>
    <edge id=":J0_1_19" function="internal">
        <lane id=":J0_1_19_0" index="0" speed="2.74" length="2.21" width="1.80" shape="341.93,114.77 342.41,114.11 342.86,113.90 343.31,114.14 343.51,114.47"/>
    </edge>
    <edge id=":J0_1_26" function="internal">
        <lane id=":J0_1_26_0" index="0" speed="7.62" length="8.04" width="1.80" shape="343.77,109.25 344.36,108.38 347.16,107.02 351.02,106.88"/>
    </edge>
    <edge id=":J0_1_27" function="internal">
        <lane id=":J0_1_27_0" index="0" speed="2.74" length="0.42" width="1.80" shape="343.51,114.47 343.73,114.83"/>
    </edge>
    <edge id=":J0_2_0" function="internal">
        <lane id=":J0_2_0_0" index="0" speed="7.87" length="11.29" width="1.80" shape="540.28,137.80 539.42,134.65 537.97,132.31 535.93,130.79 533.30,130.07"/>
    </edge>
    <edge id=":J0_2_1" function="internal">
        <lane id=":J0_2_1_0" index="0" speed="15.50" length="17.38" width="1.80" shape="540.28,137.80 539.48,132.62 539.05,129.05 538.88,125.47 538.85,120.23"/>
        <lane id=":J0_2_1_1" index="1" speed="15.50" length="17.38" width="1.80" shape="542.06,137.51 541.27,132.42 540.84,128.91 540.68,125.38 540.65,120.23"/>
        <lane id=":J0_2_1_2" index="2" speed="15.50" length="17.38" width="1.80" shape="543.84,137.23 543.06,132.22 542.64,128.77 542.48,125.30 542.45,120.23"/>
    </edge>
    <edge id=":J0_2_4" function="internal">
        <lane id=":J0_2_4_0" index="0" speed="7.83" length="5.92" width="1.80" shape="543.84,137.23 543.87,133.00 544.69,131.52"/>
    </edge>
    <edge id=":J0_2_5" function="internal">
        <lane id=":J0_2_5_0" index="0" speed="2.74" length="2.25" width="1.80" shape="543.84,137.23 544.18,136.49 544.59,136.20 545.07,136.35 545.36,136.67"/>
    </edge>
    <edge id=":J0_2_22" function="internal">
        <lane id=":J0_2_22_0" index="0" speed="7.83" length="10.23" width="1.80" shape="544.69,131.52 545.51,130.04 548.76,128.36 553.62,127.97"/>
    </edge>
    <edge id=":J0_2_23" function="internal">
        <lane id=":J0_2_23_0" index="0" speed="2.74" length="0.38" width="1.80" shape="545.36,136.67 545.62,136.95"/>
    </edge>
    <edge id=":J0_2_6" function="internal">
        <lane id=":J0_2_6_0" index="0" speed="5.54" length="7.76" width="1.80" shape="553.47,131.56 551.29,131.78 549.84,132.66 549.14,134.19 549.17,136.38"/>
    </edge>
    <edge id=":J0_2_7" function="internal">
        <lane id=":J0_2_7_0" index="0" speed="13.90" length="20.16" width="1.80" shape="553.47,131.56 533.30,130.07"/>
        <lane id=":J0_2_7_1" index="1" speed="13.90" length="20.16" width="1.80" shape="553.54,129.76 533.49,128.28"/>
    </edge>
    <edge id=":J0_2_9" function="internal">
        <lane id=":J0_2_9_0" index="0" speed="8.61" length="8.24" width="1.80" shape="553.54,129.76 548.69,128.99 545.76,127.43"/>
    </edge>
    <edge id=":J0_2_10" function="internal">
        <lane id=":J0_2_10_0" index="0" speed="2.74" length="2.31" width="1.80" shape="553.54,129.76 552.89,129.29 552.68,128.83 552.93,128.39 553.35,128.13"/>
    </edge>
    <edge id=":J0_2_24" function="internal">
        <lane id=":J0_2_24_0" index="0" speed="8.61" length="8.24" width="1.80" shape="545.76,127.43 545.22,127.14 543.14,124.22 542.45,120.23"/>
    </edge>
    <edge id=":J0_2_25" function="internal">
        <lane id=":J0_2_25_0" index="0" speed="2.74" length="0.32" width="1.80" shape="553.35,128.13 553.62,127.97"/>
    </edge>
    <edge id=":J0_2_11" function="internal">
        <lane id=":J0_2_11_0" index="0" speed="6.58" length="9.41" width="1.80" shape="547.85,120.23 548.22,122.73 549.31,124.56 551.14,125.70 553.70,126.17"/>
    </edge>
    <edge id=":J0_2_12" function="internal">
        <lane id=":J0_2_12_0" index="0" speed="15.50" length="16.52" width="1.80" shape="547.85,120.23 547.88,125.05 548.03,128.34 548.43,131.62 549.17,136.38"/>
        <lane id=":J0_2_12_1" index="1" speed="15.50" length="16.52" width="1.80" shape="546.05,120.23 546.08,125.13 546.24,128.49 546.64,131.82 547.39,136.67"/>
        <lane id=":J0_2_12_2" index="2" speed="15.50" length="16.52" width="1.80" shape="544.25,120.23 544.28,125.22 544.44,128.63 544.85,132.02 545.62,136.95"/>
    </edge>
    <edge id=":J0_2_15" function="internal">
        <lane id=":J0_2_15_0" index="0" speed="7.96" length="5.69" width="1.80" shape="544.25,120.23 543.58,124.18 542.56,125.52"/>
    </edge>
    <edge id=":J0_2_16" function="internal">
        <lane id=":J0_2_16_0" index="0" speed="2.74" length="2.23" width="1.80" shape="544.25,120.23 543.80,120.90 543.35,121.13 542.90,120.90 542.67,120.56"/>
    </edge>
    <edge id=":J0_2_26" function="internal">
        <lane id=":J0_2_26_0" index="0" speed="7.96" length="9.99" width="1.80" shape="542.56,125.52 541.56,126.84 538.20,128.21 533.49,128.28"/>
    </edge>
    <edge id=":J0_2_27" function="internal">
        <lane id=":J0_2_27_0" index="0" speed="2.74" length="0.40" width="1.80" shape="542.67,120.56 542.45,120.23"/>
    </edge>
    <edge id=":J0_2_17" function="internal">
        <lane id=":J0_2_17_0" index="0" speed="5.73" length="7.82" width="1.80" shape="533.88,124.70 536.05,124.62 537.61,123.85 538.54,122.38 538.85,120.23"/>
    </edge>
    <edge id=":J0_2_18" function="internal">
        <lane id=":J0_2_18_0" index="0" speed="13.90" length="19.93" width="1.80" shape="533.88,124.70 553.70,126.17"/>
        <lane id=":J0_2_18_1" index="1" speed="13.90" length="19.93" width="1.80" shape="533.68,126.49 553.62,127.97"/>
    </edge>
    <edge id=":J0_2_20" function="internal">
        <lane id=":J0_2_20_0" index="0" speed="9.65" length="7.12" width="1.80" shape="533.68,126.49 538.35,127.56 540.36,128.75"/>
    </edge>
    <edge id=":J0_2_21" function="internal">
        <lane id=":J0_2_21_0" index="0" speed="2.74" length="2.17" width="1.80" shape="533.68,126.49 534.31,127.01 534.48,127.48 534.21,127.90 533.90,128.07"/>
    </edge>
    <edge id=":J0_2_28" function="internal">
        <lane id=":J0_2_28_0" index="0" speed="9.65" length="10.10" width="1.80" shape="540.36,128.75 541.89,129.66 544.31,132.79 545.62,136.95"/>
    </edge>
    <edge id=":J0_2_29" function="internal">
        <lane id=":J0_2_29_0" index="0" speed="2.74" length="0.46" width="1.80" shape="533.90,128.07 533.49,128.28"/>
    </edge>
    <edge id=":J0_3_0" function="internal">
        <lane id=":J0_3_0_0" index="0" speed="6.41" length="8.64" width="1.80" shape="756.47,145.40 756.07,143.10 755.02,141.42 753.35,140.37 751.04,139.95"/>
    </edge>
    <edge id=":J0_3_1" function="internal">
        <lane id=":J0_3_1_0" index="0" speed="13.90" length="15.55" width="1.80" shape="756.47,145.40 756.20,129.82"/>
        <lane id=":J0_3_1_1" index="1" speed="13.90" length="15.55" width="1.80" shape="758.27,145.34 758.00,129.82"/>
    </edge>
    <edge id=":J0_3_3" function="internal">
        <lane id=":J0_3_3_0" index="0" speed="7.69" length="6.30" width="1.80" shape="758.27,145.34 758.68,141.55 759.90,139.38"/>
    </edge>
    <edge id=":J0_3_4" function="internal">
        <lane id=":J0_3_4_0" index="0" speed="2.74" length="2.28" width="1.80" shape="758.27,145.34 758.70,144.65 759.14,144.41 759.60,144.61 759.87,144.99"/>
    </edge>
    <edge id=":J0_3_20" function="internal">
        <lane id=":J0_3_20_0" index="0" speed="7.69" length="7.54" width="1.80" shape="759.90,139.38 760.21,138.84 762.86,137.22 766.63,136.68"/>
    </edge>
    <edge id=":J0_3_21" function="internal">
        <lane id=":J0_3_21_0" index="0" speed="2.74" length="0.35" width="1.80" shape="759.87,144.99 760.07,145.27"/>
    </edge>
    <edge id=":J0_3_5" function="internal">
        <lane id=":J0_3_5_0" index="0" speed="5.89" length="7.88" width="1.80" shape="766.63,140.28 764.48,140.59 762.97,141.51 762.10,143.05 761.87,145.21"/>
    </edge>
    <edge id=":J0_3_6" function="internal">
        <lane id=":J0_3_6_0" index="0" speed="13.90" length="15.56" width="1.80" shape="766.63,140.28 751.04,139.95"/>
        <lane id=":J0_3_6_1" index="1" speed="13.90" length="15.56" width="1.80" shape="766.63,138.48 751.11,138.15"/>
    </edge>
    <edge id=":J0_3_8" function="internal">
        <lane id=":J0_3_8_0" index="0" speed="7.81" length="6.38" width="1.80" shape="766.63,138.48 762.85,137.94 760.66,136.62"/>
    </edge>
    <edge id=":J0_3_9" function="internal">
        <lane id=":J0_3_9_0" index="0" speed="2.74" length="2.29" width="1.80" shape="766.63,138.48 765.95,138.03 765.73,137.58 765.95,137.13 766.34,136.87"/>
    </edge>
    <edge id=":J0_3_22" function="internal">
        <lane id=":J0_3_22_0" index="0" speed="7.81" length="7.56" width="1.80" shape="760.66,136.62 760.16,136.32 758.54,133.61 758.00,129.82"/>
    </edge>
    <edge id=":J0_3_23" function="internal">
        <lane id=":J0_3_23_0" index="0" speed="2.74" length="0.34" width="1.80" shape="766.34,136.87 766.63,136.68"/>
    </edge>
    <edge id=":J0_3_10" function="internal">
        <lane id=":J0_3_10_0" index="0" speed="6.05" length="8.13" width="1.80" shape="761.60,129.82 761.91,132.04 762.86,133.62 764.43,134.56 766.63,134.88"/>
    </edge>
    <edge id=":J0_3_11" function="internal">
        <lane id=":J0_3_11_0" index="0" speed="13.90" length="15.42" width="1.80" shape="761.60,129.82 761.87,145.21"/>
        <lane id=":J0_3_11_1" index="1" speed="13.90" length="15.42" width="1.80" shape="759.80,129.82 760.07,145.27"/>
    </edge>
    <edge id=":J0_3_13" function="internal">
        <lane id=":J0_3_13_0" index="0" speed="7.67" length="5.92" width="1.80" shape="759.80,129.82 759.26,133.60 758.16,135.39"/>
    </edge>
    <edge id=":J0_3_14" function="internal">
        <lane id=":J0_3_14_0" index="0" speed="2.74" length="2.21" width="1.80" shape="759.80,129.82 759.35,130.50 758.90,130.72 758.45,130.50 758.24,130.18"/>
    </edge>
    <edge id=":J0_3_24" function="internal">
        <lane id=":J0_3_24_0" index="0" speed="7.67" length="7.94" width="1.80" shape="758.16,135.39 757.63,136.25 754.91,137.77 751.11,138.15"/>
    </edge>
    <edge id=":J0_3_25" function="internal">
        <lane id=":J0_3_25_0" index="0" speed="2.74" length="0.42" width="1.80" shape="758.24,130.18 758.00,129.82"/>
    </edge>
    <edge id=":J0_3_15" function="internal">
        <lane id=":J0_3_15_0" index="0" speed="5.87" length="7.87" width="1.80" shape="751.27,134.55 753.42,134.34 754.97,133.48 755.89,131.97 756.20,129.82"/>
    </edge>
    <edge id=":J0_3_16" function="internal">
        <lane id=":J0_3_16_0" index="0" speed="13.90" length="15.41" width="1.80" shape="751.27,134.55 766.63,134.88"/>
        <lane id=":J0_3_16_1" index="1" speed="13.90" length="15.41" width="1.80" shape="751.19,136.35 766.63,136.68"/>
    </edge>
    <edge id=":J0_3_18" function="internal">
        <lane id=":J0_3_18_0" index="0" speed="8.10" length="6.05" width="1.80" shape="751.19,136.35 754.96,137.05 756.84,138.22"/>
    </edge>
    <edge id=":J0_3_19" function="internal">
        <lane id=":J0_3_19_0" index="0" speed="2.74" length="2.20" width="1.80" shape="751.19,136.35 751.84,136.83 752.05,137.29 751.81,137.73 751.48,137.93"/>
    </edge>
    <edge id=":J0_3_26" function="internal">
        <lane id=":J0_3_26_0" index="0" speed="8.10" length="8.07" width="1.80" shape="756.84,138.22 757.70,138.76 759.40,141.51 760.07,145.27"/>
    </edge>
    <edge id=":J0_3_27" function="internal">
        <lane id=":J0_3_27_0" index="0" speed="2.74" length="0.43" width="1.80" shape="751.48,137.93 751.11,138.15"/>
    </edge>
    <edge id=":J1_0_0" function="internal">
        <lane id=":J1_0_0_0" index="0" speed="5.97" length="7.90" width="1.80" shape="100.65,397.83 100.34,395.69 99.42,394.16 97.89,393.24 95.75,392.93"/>
    </edge>
    <edge id=":J1_0_1" function="internal">
        <lane id=":J1_0_1_0" index="0" speed="13.90" length="19.67" width="1.80" shape="100.65,397.83 100.68,391.96 100.83,387.94 101.22,383.94 101.96,378.11"/>
        <lane id=":J1_0_1_1" index="1" speed="13.90" length="19.67" width="1.80" shape="102.45,397.83 102.48,392.03 102.63,388.06 103.02,384.10 103.74,378.34"/>
    </edge>
    <edge id=":J1_0_3" function="internal">
        <lane id=":J1_0_3_0" index="0" speed="8.45" length="7.13" width="1.80" shape="102.45,397.83 103.04,393.32 104.26,391.04"/>
    </edge>
    <edge id=":J1_0_4" function="internal">
        <lane id=":J1_0_4_0" index="0" speed="2.74" length="2.25" width="1.80" shape="102.45,397.83 102.90,397.15 103.35,396.93 103.80,397.15 104.04,397.52"/>
    </edge>
    <edge id=":J1_0_22" function="internal">
        <lane id=":J1_0_22_0" index="0" speed="8.45" length="8.87" width="1.80" shape="104.26,391.04 104.80,390.05 107.73,388.03 111.84,387.25"/>
    </edge>
    <edge id=":J1_0_23" function="internal">
        <lane id=":J1_0_23_0" index="0" speed="2.74" length="0.38" width="1.80" shape="104.04,397.52 104.25,397.83"/>
    </edge>
    <edge id=":J1_0_5" function="internal">
        <lane id=":J1_0_5_0" index="0" speed="6.40" length="8.92" width="1.80" shape="112.01,392.65 109.40,393.05 107.54,394.04 106.42,395.64 106.05,397.83"/>
    </edge>
    <edge id=":J1_0_6" function="internal">
        <lane id=":J1_0_6_0" index="0" speed="15.50" length="16.21" width="1.80" shape="112.01,392.65 95.75,392.93"/>
        <lane id=":J1_0_6_1" index="1" speed="15.50" length="16.21" width="1.80" shape="111.96,390.85 95.75,391.13"/>
        <lane id=":J1_0_6_2" index="2" speed="15.50" length="16.21" width="1.80" shape="111.90,389.05 95.75,389.33"/>
    </edge>
    <edge id=":J1_0_9" function="internal">
        <lane id=":J1_0_9_0" index="0" speed="7.88" length="5.95" width="1.80" shape="111.90,389.05 107.80,388.50 106.33,387.44"/>
    </edge>
    <edge id=":J1_0_10" function="internal">
        <lane id=":J1_0_10_0" index="0" speed="2.74" length="2.27" width="1.80" shape="111.90,389.05 111.21,388.63 110.97,388.18 111.18,387.73 111.55,387.46"/>
    </edge>
    <edge id=":J1_0_24" function="internal">
        <lane id=":J1_0_24_0" index="0" speed="7.88" length="10.00" width="1.80" shape="106.33,387.44 105.07,386.53 103.72,383.15 103.74,378.34"/>
    </edge>
    <edge id=":J1_0_25" function="internal">
        <lane id=":J1_0_25_0" index="0" speed="2.74" length="0.35" width="1.80" shape="111.55,387.46 111.84,387.25"/>
    </edge>
    <edge id=":J1_0_11" function="internal">
        <lane id=":J1_0_11_0" index="0" speed="5.62" length="7.79" width="1.80" shape="107.32,378.80 107.35,380.99 108.09,382.53 109.55,383.41 111.72,383.66"/>
    </edge>
    <edge id=":J1_0_12" function="internal">
        <lane id=":J1_0_12_0" index="0" speed="13.90" length="19.21" width="1.80" shape="107.32,378.80 106.60,384.43 106.22,388.29 106.08,392.16 106.05,397.83"/>
        <lane id=":J1_0_12_1" index="1" speed="13.90" length="19.21" width="1.80" shape="105.53,378.57 104.81,384.26 104.43,388.17 104.28,392.10 104.25,397.83"/>
    </edge>
    <edge id=":J1_0_14" function="internal">
        <lane id=":J1_0_14_0" index="0" speed="8.80" length="7.81" width="1.80" shape="105.53,378.57 104.40,383.28 102.88,385.83"/>
    </edge>
    <edge id=":J1_0_15" function="internal">
        <lane id=":J1_0_15_0" index="0" speed="2.74" length="2.24" width="1.80" shape="105.53,378.57 105.00,379.19 104.52,379.35 104.10,379.07 103.92,378.69"/>
    </edge>
    <edge id=":J1_0_26" function="internal">
        <lane id=":J1_0_26_0" index="0" speed="8.80" length="8.29" width="1.80" shape="102.88,385.83 102.39,386.64 99.51,388.66 95.75,389.33"/>
    </edge>
    <edge id=":J1_0_27" function="internal">
        <lane id=":J1_0_27_0" index="0" speed="2.74" length="0.39" width="1.80" shape="103.92,378.69 103.74,378.34"/>
    </edge>
    <edge id=":J1_0_16" function="internal">
        <lane id=":J1_0_16_0" index="0" speed="6.82" length="9.45" width="1.80" shape="95.75,383.93 98.19,383.57 100.03,382.48 101.29,380.66 101.96,378.11"/>
    </edge>
    <edge id=":J1_0_17" function="internal">
        <lane id=":J1_0_17_0" index="0" speed="15.50" length="16.03" width="1.80" shape="95.75,383.93 111.72,383.66"/>
        <lane id=":J1_0_17_1" index="1" speed="15.50" length="16.03" width="1.80" shape="95.75,385.73 111.78,385.46"/>
        <lane id=":J1_0_17_2" index="2" speed="15.50" length="16.03" width="1.80" shape="95.75,387.53 111.84,387.25"/>
    </edge>
    <edge id=":J1_0_20" function="internal">
        <lane id=":J1_0_20_0" index="0" speed="8.14" length="5.47" width="1.80" shape="95.75,387.53 99.47,388.17 100.84,389.17"/>
    </edge>
    <edge id=":J1_0_21" function="internal">
        <lane id=":J1_0_21_0" index="0" speed="2.74" length="2.21" width="1.80" shape="95.75,387.53 96.42,387.98 96.65,388.43 96.42,388.88 96.10,389.10"/>
    </edge>
    <edge id=":J1_0_28" function="internal">
        <lane id=":J1_0_28_0" index="0" speed="8.14" length="9.72" width="1.80" shape="100.84,389.17 102.12,390.11 103.72,393.32 104.25,397.83"/>
    </edge>
    <edge id=":J1_0_29" function="internal">
        <lane id=":J1_0_29_0" index="0" speed="2.74" length="0.42" width="1.80" shape="96.10,389.10 95.75,389.33"/>
    </edge>
    <edge id=":J1_1_0" function="internal">
        <lane id=":J1_1_0_0" index="0" speed="5.90" length="7.88" width="1.80" shape="331.15,390.49 330.84,388.34 329.92,386.83 328.38,385.96 326.22,385.72"/>
    </edge>
    <edge id=":J1_1_1" function="internal">
        <lane id=":J1_1_1_0" index="0" speed="13.90" length="19.28" width="1.80" shape="331.15,390.49 331.48,371.19"/>
        <lane id=":J1_1_1_1" index="1" speed="13.90" length="19.28" width="1.80" shape="332.95,390.49 333.28,371.25"/>
    </edge>
    <edge id=":J1_1_3" function="internal">
        <lane id=":J1_1_3_0" index="0" speed="8.43" length="7.54" width="1.80" shape="332.95,390.49 333.51,385.92 334.83,383.29"/>
    </edge>
    <edge id=":J1_1_4" function="internal">
        <lane id=":J1_1_4_0" index="0" speed="2.74" length="2.28" width="1.80" shape="332.95,390.49 333.40,389.81 333.85,389.59 334.30,389.81 334.56,390.20"/>
    </edge>
    <edge id=":J1_1_22" function="internal">
        <lane id=":J1_1_22_0" index="0" speed="8.43" length="8.21" width="1.80" shape="334.83,383.29 335.17,382.61 337.95,380.53 341.84,379.71"/>
    </edge>
    <edge id=":J1_1_23" function="internal">
        <lane id=":J1_1_23_0" index="0" speed="2.74" length="0.35" width="1.80" shape="334.56,390.20 334.75,390.49"/>
    </edge>