<?xml version="1.0" encoding="UTF-8"?>

<!-- generated on 2026-04-11T23:19:14.170436+05:30 by Eclipse SUMO netconvert 1.26.0
<netconvertConfiguration xmlns:xsi="http://www.w3.org/2001/XMLSchema-instance" xsi:noNamespaceSchemaLocation="http://sumo.dlr.de/xsd/netconvertConfiguration.xsd">

    <input>
        <node-files value="C:\Users\santhosh\OneDrive\Desktop\trafiic pro\web_runs\20260411_231913_679001\area.nod.xml"/>
        <edge-files value="C:\Users\santhosh\OneDrive\Desktop\trafiic pro\web_runs\20260411_231913_679001\area.edg.xml"/>
    </input>

    <output>
        <output-file value="C:\Users\santhosh\OneDrive\Desktop\trafiic pro\web_runs\20260411_231913_679001\area.net.xml"/>
    </output>

    <building_defaults>
        <default.lanewidth value="1.8"/>
    </building_defaults>

    <junctions>
        <junctions.corner-detail value="0"/>
    </junctions>

</netconvertConfiguration>
-->

<net version="1.20" limitTurnSpeed="5.50" xmlns:xsi="http://www.w3.org/2001/XMLSchema-instance" xsi:noNamespaceSchemaLocation="http://sumo.dlr.de/xsd/net_file.xsd">

    <location netOffset="-180.00,-186.72" convBoundary="0.00,0.00,1830.71,1881.28" origBoundary="180.00,186.72,2010.71,2068.00" projParameter="!"/>

    <edge id=":E1_0" function="internal">
        <lane id=":E1_0_0" index="0" speed="2.74" length="2.63" width="1.80" shape="1046.06,1350.33 1046.76,1350.74 1047.01,1351.18 1046.81,1351.64 1046.16,1352.13"/>
    </edge>
    <edge id=":E2_0" function="internal">
        <lane id=":E2_0_0" index="0" speed="2.74" length="2.63" width="1.80" shape="1830.75,959.90 1831.40,960.38 1831.61,960.84 1831.37,961.28 1830.67,961.70"/>
    </edge>
    <edge id=":J1_0_0" function="internal">
        <lane id=":J1_0_0_0" index="0" speed="13.90" length="156.74" width="1.80" shape="933.55,1352.27 776.90,1346.92"/>
    </edge>
    <edge id=":J1_0_1" function="internal">
        <lane id=":J1_0_1_0" index="0" speed="13.90" length="17.03" width="1.80" shape="933.55,1352.27 933.00,1348.25 932.99,1343.79 933.49,1339.37 934.48,1335.43"/>
    </edge>
    <edge id=":J1_0_2" function="internal">
        <lane id=":J1_0_2_0" index="0" speed="13.90" length="231.57" width="1.80" shape="933.55,1352.27 787.67,1361.41 702.43,1366.77"/>
    </edge>
    <edge id=":J1_0_3" function="internal">
        <lane id=":J1_0_3_0" index="0" speed="2.74" length="2.40" width="1.80" shape="933.55,1352.27 933.84,1351.51 934.23,1351.20 934.72,1351.32 935.14,1351.72"/>
    </edge>
    <edge id=":J1_0_16" function="internal">
        <lane id=":J1_0_16_0" index="0" speed="13.90" length="695.87" width="1.80" shape="702.43,1366.77 467.41,1381.54 148.82,1401.58 7.93,1410.47"/>
    </edge>
    <edge id=":J1_0_17" function="internal">
        <lane id=":J1_0_17_0" index="0" speed="2.74" length="0.23" width="1.80" shape="935.14,1351.72 935.31,1351.88"/>
    </edge>
    <edge id=":J1_0_4" function="internal">
        <lane id=":J1_0_4_0" index="0" speed="13.90" length="16.05" width="1.80" shape="936.19,1336.02 935.20,1339.80 934.72,1343.89 934.75,1348.00 935.31,1351.88"/>
    </edge>
    <edge id=":J1_0_5" function="internal">
        <lane id=":J1_0_5_0" index="0" speed="13.90" length="931.81" width="1.80" shape="936.19,1336.02 875.43,1348.58 700.47,1365.18 411.31,1385.81 7.93,1410.47"/>
    </edge>
    <edge id=":J1_0_6" function="internal">
        <lane id=":J1_0_6_0" index="0" speed="13.90" length="0.94" width="1.80" shape="936.19,1336.02 935.25,1336.08"/>
    </edge>
    <edge id=":J1_0_7" function="internal">
        <lane id=":J1_0_7_0" index="0" speed="2.74" length="2.06" width="1.80" shape="936.19,1336.02 935.54,1336.51 935.04,1336.58 934.69,1336.22 934.63,1335.98"/>
    </edge>
    <edge id=":J1_0_18" function="internal">
        <lane id=":J1_0_18_0" index="0" speed="13.90" length="158.72" width="1.80" shape="935.25,1336.08 776.90,1346.92"/>
    </edge>
    <edge id=":J1_0_19" function="internal">
        <lane id=":J1_0_19_0" index="0" speed="2.74" length="0.57" width="1.80" shape="934.63,1335.98 934.48,1335.43"/>
    </edge>
    <edge id=":J1_0_8" function="internal">
        <lane id=":J1_0_8_0" index="0" speed="13.90" length="158.88" width="1.80" shape="776.57,1345.15 935.31,1351.88"/>
    </edge>
    <edge id=":J1_0_9" function="internal">
        <lane id=":J1_0_9_0" index="0" speed="13.90" length="771.41" width="1.80" shape="776.57,1345.15 657.84,1355.02 392.22,1377.58 126.62,1400.26 7.93,1410.47"/>
    </edge>
    <edge id=":J1_0_10" function="internal">
        <lane id=":J1_0_10_0" index="0" speed="13.90" length="158.21" width="1.80" shape="776.57,1345.15 934.48,1335.43"/>
    </edge>
    <edge id=":J1_0_11" function="internal">
        <lane id=":J1_0_11_0" index="0" speed="2.74" length="0.20" width="1.80" shape="776.57,1345.15 776.76,1345.23"/>
    </edge>
    <edge id=":J1_0_20" function="internal">
        <lane id=":J1_0_20_0" index="0" speed="2.74" length="2.42" width="1.80" shape="776.76,1345.23 777.32,1345.47 777.62,1345.88 777.48,1346.36 776.90,1346.92"/>
    </edge>
    <edge id=":J1_0_12" function="internal">
        <lane id=":J1_0_12_0" index="0" speed="13.90" length="0.25" width="1.80" shape="8.04,1412.27 8.29,1412.24"/>
    </edge>
    <edge id=":J1_0_13" function="internal">
        <lane id=":J1_0_13_0" index="0" speed="13.90" length="929.30" width="1.80" shape="8.04,1412.27 414.28,1388.32 704.23,1370.27 877.91,1358.12 935.31,1351.88"/>
    </edge>
    <edge id=":J1_0_14" function="internal">
        <lane id=":J1_0_14_0" index="0" speed="13.90" length="771.63" width="1.80" shape="8.04,1412.27 126.76,1402.05 392.44,1379.36 658.14,1356.79 776.90,1346.92"/>
    </edge>
    <edge id=":J1_0_15" function="internal">
        <lane id=":J1_0_15_0" index="0" speed="2.74" length="0.29" width="1.80" shape="8.04,1412.27 7.79,1412.12"/>
    </edge>
    <edge id=":J1_0_21" function="internal">
        <lane id=":J1_0_21_0" index="0" speed="13.90" length="929.37" width="1.80" shape="8.29,1412.24 149.04,1400.52 467.89,1374.17 788.43,1347.65 934.48,1335.43"/>
    </edge>
    <edge id=":J1_0_22" function="internal">
        <lane id=":J1_0_22_0" index="0" speed="2.74" length="2.34" width="1.80" shape="7.79,1412.12 7.34,1411.86 7.09,1411.42 7.29,1410.96 7.93,1410.47"/>
    </edge>
    <edge id=":J2_0_0" function="internal">
        <lane id=":J2_0_0_0" index="0" speed="13.90" length="511.19" width="1.80" shape="1315.26,898.85 1393.18,908.20 1568.99,929.71 1744.79,951.33 1822.66,960.99"/>
    </edge>
    <edge id=":J2_0_1" function="internal">
        <lane id=":J2_0_1_0" index="0" speed="13.90" length="239.80" width="1.80" shape="1315.26,898.85 1097.33,798.81"/>
    </edge>
    <edge id=":J2_0_2" function="internal">
        <lane id=":J2_0_2_0" index="0" speed="13.90" length="344.69" width="1.80" shape="1315.26,898.85 1023.80,1082.87"/>
    </edge>
    <edge id=":J2_0_3" function="internal">
        <lane id=":J2_0_3_0" index="0" speed="2.74" length="1.31" width="1.80" shape="1315.26,898.85 1314.69,898.28 1314.56,897.79"/>
    </edge>
    <edge id=":J2_0_16" function="internal">
        <lane id=":J2_0_16_0" index="0" speed="2.74" length="1.31" width="1.80" shape="1314.56,897.79 1314.88,897.40 1315.63,897.09"/>
    </edge>
    <edge id=":J2_0_4" function="internal">
        <lane id=":J2_0_4_0" index="0" speed="13.90" length="238.03" width="1.80" shape="1099.06,798.32 1315.63,897.09"/>
    </edge>
    <edge id=":J2_0_5" function="internal">
        <lane id=":J2_0_5_0" index="0" speed="13.90" length="294.36" width="1.80" shape="1099.06,798.32 1088.11,844.14 1062.56,940.63 1036.44,1037.10 1023.80,1082.87"/>
    </edge>
    <edge id=":J2_0_6" function="internal">
        <lane id=":J2_0_6_0" index="0" speed="13.90" length="736.87" width="1.80" shape="1099.06,798.32 1817.99,959.94"/>
    </edge>
    <edge id=":J2_0_7" function="internal">
        <lane id=":J2_0_7_0" index="0" speed="2.74" length="1.31" width="1.80" shape="1099.06,798.32 1098.81,799.09 1098.44,799.43"/>
    </edge>
    <edge id=":J2_0_17" function="internal">
        <lane id=":J2_0_17_0" index="0" speed="13.90" length="4.79" width="1.80" shape="1817.99,959.94 1822.66,960.99"/>
    </edge>
    <edge id=":J2_0_18" function="internal">
        <lane id=":J2_0_18_0" index="0" speed="2.74" length="1.31" width="1.80" shape="1098.44,799.43 1097.95,799.34 1097.33,798.81"/>
    </edge>
    <edge id=":J2_0_8" function="internal">
        <lane id=":J2_0_8_0" index="0" speed="13.90" length="809.70" width="1.80" shape="1022.10,1082.29 1822.66,960.99"/>
    </edge>
    <edge id=":J2_0_9" function="internal">
        <lane id=":J2_0_9_0" index="0" speed="13.90" length="293.31" width="1.80" shape="1022.10,1082.29 1034.74,1036.68 1060.84,940.58 1086.38,844.47 1097.33,798.81"/>
    </edge>
    <edge id=":J2_0_10" function="internal">
        <lane id=":J2_0_10_0" index="0" speed="13.90" length="2.32" width="1.80" shape="1022.10,1082.29 1024.06,1081.05"/>
    </edge>
    <edge id=":J2_0_11" function="internal">
        <lane id=":J2_0_11_0" index="0" speed="2.74" length="2.11" width="1.80" shape="1022.10,1082.29 1022.75,1081.79 1023.25,1081.73 1023.60,1082.09 1023.67,1082.37"/>
    </edge>
    <edge id=":J2_0_19" function="internal">
        <lane id=":J2_0_19_0" index="0" speed="13.90" length="344.74" width="1.80" shape="1024.06,1081.05 1315.63,897.09"/>
    </edge>
    <edge id=":J2_0_20" function="internal">
        <lane id=":J2_0_20_0" index="0" speed="2.74" length="0.52" width="1.80" shape="1023.67,1082.37 1023.80,1082.87"/>
    </edge>
    <edge id=":J2_0_12" function="internal">
        <lane id=":J2_0_12_0" index="0" speed="13.90" length="510.98" width="1.80" shape="1822.82,959.20 1744.98,949.54 1569.26,927.93 1393.51,906.43 1315.63,897.09"/>
    </edge>
    <edge id=":J2_0_13" function="internal">
        <lane id=":J2_0_13_0" index="0" speed="13.90" length="808.53" width="1.80" shape="1822.82,959.20 1023.80,1082.87"/>
    </edge>
    <edge id=":J2_0_14" function="internal">
        <lane id=":J2_0_14_0" index="0" speed="13.90" length="743.01" width="1.80" shape="1822.82,959.20 1097.33,798.81"/>
    </edge>
    <edge id=":J2_0_15" function="internal">
        <lane id=":J2_0_15_0" index="0" speed="2.74" length="0.33" width="1.80" shape="1822.82,959.20 1823.07,959.40"/>
    </edge>
    <edge id=":J2_0_21" function="internal">
        <lane id=":J2_0_21_0" index="0" speed="2.74" length="2.30" width="1.80" shape="1823.07,959.40 1823.45,959.71 1823.64,960.17 1823.37,960.60 1822.66,960.99"/>
    </edge>
    <edge id=":N0_0" function="internal">
        <lane id=":N0_0_0" index="0" speed="2.74" length="2.63" width="1.80" shape="962.52,1881.39 962.00,1882.00 961.52,1882.17 961.10,1881.90 960.74,1881.17"/>
    </edge>
    <edge id=":S0_0" function="internal">
        <lane id=":S0_0_0" index="0" speed="2.74" length="2.63" width="1.80" shape="993.44,0.09 993.82,-0.63 994.25,-0.90 994.72,-0.72 995.24,-0.09"/>
    </edge>
    <edge id=":W1_0" function="internal">
        <lane id=":W1_0_0" index="0" speed="2.74" length="2.63" width="1.80" shape="-0.03,1412.73 -0.69,1412.26 -0.90,1411.80 -0.66,1411.36 0.03,1410.93"/>
    </edge>
    <edge id=":W2_0" function="internal">
        <lane id=":W2_0_0" index="0" speed="2.74" length="2.63" width="1.80" shape="1046.03,892.16 1045.40,891.65 1045.21,891.18 1045.48,890.75 1046.19,890.36"/>
    </edge>

    <edge id="SE0_J1_0_W1" from="J1_0" to="W1" priority="-1" shape="784.60,1344.58 523.10,1393.09 261.50,1419.16 0.00,1411.83">
        <lane id="SE0_J1_0_W1_0" index="0" speed="13.90" length="782.65" width="1.80" shape="776.90,1346.92 523.23,1393.98 261.53,1420.06 -0.03,1412.73"/>
    </edge>
    <edge id="SE0_W1_J1_0" from="W1" to="J1_0" priority="-1" shape="0.00,1411.83 261.50,1419.16 523.10,1393.09 784.60,1344.58">
        <lane id="SE0_W1_J1_0_0" index="0" speed="13.90" length="782.27" width="1.80" shape="0.03,1410.93 261.47,1418.26 522.97,1392.20 776.57,1345.15"/>
    </edge>
    <edge id="SE1_E1_J1_0" from="E1" to="J1_0" priority="-1" shape="1046.11,1351.23 0.00,1411.83">
        <lane id="SE1_E1_J1_0_0" index="0" speed="13.90" length="1039.86" width="1.80" shape="1046.16,1352.13 8.04,1412.27"/>
    </edge>
    <edge id="SE1_J1_0_E1" from="J1_0" to="E1" priority="-1" shape="0.00,1411.83 1046.11,1351.23">
        <lane id="SE1_J1_0_E1_0" index="0" speed="13.90" length="1039.86" width="1.80" shape="7.93,1410.47 1046.06,1350.33"/>
    </edge>
    <edge id="SE2_J2_0_W2" from="J2_0" to="W2" priority="-1" shape="1830.71,960.80 1046.11,891.26">
        <lane id="SE2_J2_0_W2_0" index="0" speed="13.90" length="779.68" width="1.80" shape="1822.66,960.99 1046.03,892.16"/>
    </edge>
    <edge id="SE2_W2_J2_0" from="W2" to="J2_0" priority="-1" shape="1046.11,891.26 1830.71,960.80">
        <lane id="SE2_W2_J2_0_0" index="0" speed="13.90" length="779.68" width="1.80" shape="1046.19,890.36 1822.82,959.20"/>
    </edge>
    <edge id="SE3_E2_J2_0" from="E2" to="J2_0" priority="-1" shape="1830.71,960.80 1569.20,950.18 1307.61,896.36">
        <lane id="SE3_E2_J2_0_0" index="0" speed="13.90" length="520.94" width="1.80" shape="1830.67,961.70 1569.09,951.08 1315.26,898.85"/>
    </edge>
    <edge id="SE3_J2_0_E2" from="J2_0" to="E2" priority="-1" shape="1307.61,896.36 1569.20,950.18 1830.71,960.80">
        <lane id="SE3_J2_0_E2_0" index="0" speed="13.90" length="520.65" width="1.80" shape="1315.63,897.09 1569.31,949.28 1830.75,959.90"/>
    </edge>
    <edge id="SE4_J1_0_N0" from="J1_0" to="N0" priority="-1" shape="932.55,1343.77 993.32,1612.53 961.63,1881.28">
        <lane id="SE4_J1_0_N0_0" index="0" speed="13.90" length="537.95" width="1.80" shape="935.31,1351.88 994.23,1612.48 962.52,1881.39"/>
    </edge>
    <edge id="SE4_N0_J1_0" from="N0" to="J1_0" priority="-1" shape="961.63,1881.28 993.32,1612.53 932.55,1343.77">
        <lane id="SE4_N0_J1_0_0" index="0" speed="13.90" length="537.33" width="1.80" shape="960.74,1881.17 992.41,1612.58 933.55,1352.27"/>
    </edge>
    <edge id="SE5_J1_0_J2_0" from="J1_0" to="J2_0" priority="-1" shape="932.55,1343.77 1025.57,1075.02">
        <lane id="SE5_J1_0_J2_0_0" index="0" speed="13.90" length="267.88" width="1.80" shape="934.48,1335.43 1022.10,1082.29"/>
    </edge>
    <edge id="SE5_J2_0_J1_0" from="J2_0" to="J1_0" priority="-1" shape="1025.57,1075.02 932.55,1343.77">
        <lane id="SE5_J2_0_J1_0_0" index="0" speed="13.90" length="267.88" width="1.80" shape="1023.80,1082.87 936.19,1336.02"/>
    </edge>
    <edge id="SE6_J2_0_S0" from="J2_0" to="S0" priority="-1" shape="1100.38,806.26 1024.08,537.51 1021.94,268.75 994.34,0.00">
        <lane id="SE6_J2_0_S0_0" index="0" speed="13.90" length="810.46" width="1.80" shape="1097.33,798.81 1023.18,537.64 1021.04,268.80 993.44,0.09"/>
    </edge>
    <edge id="SE6_S0_J2_0" from="S0" to="J2_0" priority="-1" shape="994.34,0.00 1021.94,268.75 1024.08,537.51 1100.38,806.26">
        <lane id="SE6_S0_J2_0_0" index="0" speed="13.90" length="810.14" width="1.80" shape="995.24,-0.09 1022.84,268.70 1024.98,537.38 1099.06,798.32"/>
    </edge>

    <tlLogic id="J1_0" type="static" programID="0" offset="0">
        <phase duration="31" state="rrrrrrrrGGGgggGg"/>
        <phase duration="3"  state="rrrrrrrryyyyyyyy"/>
        <phase duration="64" state="rrrrrrrrrrrrrrrr"/>
        <phase duration="31" state="GGggGGggrrrrrrrr"/>
        <phase duration="3"  state="yyyyyyyyrrrrrrrr"/>
        <phase duration="65" state="rrrrrrrrrrrrrrrr"/>
    </tlLogic>
    <tlLogic id="J2_0" type="static" programID="0" offset="0">
        <phase duration="31" state="GGGgGrrrrrrrrrrr"/>
        <phase duration="3"  state="yyyyyrrrrrrrrrrr"/>
        <phase duration="34" state="rrrrrrrrrrrrrrrr"/>
        <phase duration="31" state="rrrrGGggGGggrrrr"/>
        <phase duration="3"  state="rrrryyyyyyyyrrrr"/>
        <phase duration="56" state="rrrrrrrrrrrrrrrr"/>
        <phase duration="31" state="rrrrrrrrGrrrGGGg"/>
        <phase duration="3"  state="rrrrrrrryrrryyyy"/>
        <phase duration="56" state="rrrrrrrrrrrrrrrr"/>
    </tlLogic>

    <junction id="E1" type="priority" x="1046.11" y="1351.23" incLanes="SE1_J1_0_E1_0" intLanes=":E1_0_0" shape="1046.11,1351.23 1046.01,1349.43 1046.11,1351.23">
        <request index="0" response="0" foes="0" cont="0"/>
    </junction>
    <junction id="E2" type="priority" x="1830.71" y="960.80" incLanes="SE3_J2_0_E2_0" intLanes=":E2_0_0" shape="1830.71,960.80 1830.78,959.00 1830.71,960.80">
        <request index="0" response="0" foes="0" cont="0"/>
    </junction>
    <junction id="J1_0" type="traffic_light" x="933.65" y="1348.63" incLanes="SE4_N0_J1_0_0 SE5_J2_0_J1_0_0 SE0_W1_J1_0_0 SE1_E1_J1_0_0" intLanes=":J1_0_0_0 :J1_0_1_0 :J1_0_16_0 :J1_0_17_0 :J1_0_4_0 :J1_0_5_0 :J1_0_18_0 :J1_0_19_0 :J1_0_8_0 :J1_0_9_0 :J1_0_10_0 :J1_0_20_0 :J1_0_21_0 :J1_0_13_0 :J1_0_14_0 :J1_0_22_0" shape="932.67,1352.47 936.18,1351.68 7.99,1411.37 7.88,1409.57 937.04,1336.31 933.63,1335.14 776.41,1344.27 776.73,1346.04 8.09,1413.16 7.99,1411.37 776.73,1346.04 777.06,1347.81">
        <request index="0"  response="0100000000000000" foes="0100100001000000" cont="0"/>
        <request index="1"  response="0011011100000000" foes="1011011111000000" cont="0"/>
        <request index="2"  response="0010001100110000" foes="1011001100110000" cont="1"/>
        <request index="3"  response="0010000100010000" foes="0010000100010000" cont="1"/>
        <request index="4"  response="0010001100000000" foes="1010001100001100" cont="0"/>
        <request index="5"  response="0000001000000000" foes="1000001000000100" cont="0"/>
        <request index="6"  response="0110001100000011" foes="1111101100000011" cont="1"/>
        <request index="7"  response="0001010000000010" foes="0001010000000010" cont="1"/>
        <request index="8"  response="0000000001000100" foes="1011000001011110" cont="0"/>
        <request index="9"  response="0000000001000100" foes="1001000001110110" cont="0"/>
        <request index="10" response="0000000000000000" foes="0001000010000010" cont="0"/>
        <request index="11" response="1111000001000001" foes="1111000001000001" cont="1"/>
        <request index="12" response="0000011101000100" foes="0000111111000110" cont="1"/>
        <request index="13" response="0000000101000100" foes="0000100101011110" cont="0"/>
        <request index="14" response="0000000001000000" foes="0000100001000001" cont="0"/>
        <request index="15" response="0000001101110110" foes="0000101101110110" cont="1"/>
    </junction>
    <junction id="J2_0" type="traffic_light" x="1076.64" y="891.54" incLanes="SE3_E2_J2_0_0 SE6_S0_J2_0_0 SE5_J1_0_J2_0_0 SE2_W2_J2_0_0" intLanes=":J2_0_0_0 :J2_0_1_0 :J2_0_2_0 :J2_0_16_0 :J2_0_4_0 :J2_0_5_0 :J2_0_17_0 :J2_0_18_0 :J2_0_8_0 :J2_0_9_0 :J2_0_19_0 :J2_0_20_0 :J2_0_12_0 :J2_0_13_0 :J2_0_14_0 :J2_0_21_0" shape="1315.08,899.74 1315.81,896.21 1099.93,798.07 1096.46,799.06 1822.74,960.09 1822.58,961.89 1021.25,1081.99 1024.65,1083.17 1822.90,958.30 1822.74,960.09">
        <request index="0"  response="0001010001000000" foes="1101011101100000" cont="0"/>
        <request index="1"  response="0101010001000000" foes="0101011011100000" cont="0"/>
        <request index="2"  response="0111000000000000" foes="1111100000100000" cont="0"/>
        <request index="3"  response="0001010000010000" foes="0001010000010000" cont="1"/>
        <request index="4"  response="0001000000000000" foes="0001010000001000" cont="0"/>
        <request index="5"  response="0110000000000111" foes="1110110000000111" cont="0"/>
        <request index="6"  response="0100001100000011" foes="1110001100000011" cont="1"/>
        <request index="7"  response="0100001000000010" foes="0100001000000010" cont="1"/>
        <request index="8"  response="0000000000000001" foes="1000000001000001" cont="0"/>
        <request index="9"  response="0100000000000011" foes="1100000011000011" cont="0"/>
        <request index="10" response="0101000000110011" foes="1111000000111011" cont="1"/>
        <request index="11" response="0010000000100100" foes="0010000000100100" cont="1"/>
        <request index="12" response="0000010000000000" foes="0000010000011111" cont="0"/>
        <request index="13" response="0000010001000000" foes="0000110001100100" cont="0"/>
        <request index="14" response="0000010001000001" foes="0000011011100111" cont="0"/>
        <request index="15" response="0000011101100101" foes="0000011101100101" cont="1"/>
    </junction>
    <junction id="N0" type="priority" x="961.63" y="1881.28" incLanes="SE4_J1_0_N0_0" intLanes=":N0_0_0" shape="961.63,1881.28 963.42,1881.49 961.63,1881.28">
        <request index="0" response="0" foes="0" cont="0"/>
    </junction>
    <junction id="S0" type="priority" x="994.34" y="0.00" incLanes="SE6_J2_0_S0_0" intLanes=":S0_0_0" shape="994.34,0.00 992.55,0.18 994.34,0.00">
        <request index="0" response="0" foes="0" cont="0"/>
    </junction>
    <junction id="W1" type="priority" x="0.00" y="1411.83" incLanes="SE0_J1_0_W1_0" intLanes=":W1_0_0" shape="-0.00,1411.83 -0.05,1413.63 0.00,1411.83">
        <request index="0" response="0" foes="0" cont="0"/>
    </junction>
    <junction id="W2" type="priority" x="1046.11" y="891.26" incLanes="SE2_J2_0_W2_0" intLanes=":W2_0_0" shape="1046.11,891.26 1045.95,893.05 1046.11,891.26">
        <request index="0" response="0" foes="0" cont="0"/>
    </junction>

    <junction id=":J1_0_16_0" type="internal" x="702.43" y="1366.77" incLanes=":J1_0_2_0 SE5_J2_0_J1_0_0" intLanes=":J1_0_4_0 :J1_0_5_0 :J1_0_8_0 :J1_0_9_0 :J1_0_12_0 :J1_0_13_0 :J1_0_15_0"/>
    <junction id=":J1_0_17_0" type="internal" x="935.14" y="1351.72" incLanes=":J1_0_3_0 SE0_W1_J1_0_0 SE1_E1_J1_0_0 SE5_J2_0_J1_0_0" intLanes=":J1_0_4_0 :J1_0_8_0 :J1_0_13_0"/>
    <junction id=":J1_0_18_0" type="internal" x="935.25" y="1336.08" incLanes=":J1_0_6_0 SE4_N0_J1_0_0" intLanes=":J1_0_0_0 :J1_0_1_0 :J1_0_8_0 :J1_0_9_0 :J1_0_11_0 :J1_0_12_0 :J1_0_13_0 :J1_0_14_0 :J1_0_15_0"/>
    <junction id=":J1_0_19_0" type="internal" x="934.63" y="1335.98" incLanes=":J1_0_7_0 SE0_W1_J1_0_0 SE1_E1_J1_0_0 SE4_N0_J1_0_0" intLanes=":J1_0_1_0 :J1_0_10_0 :J1_0_12_0"/>
    <junction id=":J1_0_20_0" type="internal" x="776.76" y="1345.23" incLanes=":J1_0_11_0 SE1_E1_J1_0_0 SE4_N0_J1_0_0 SE5_J2_0_J1_0_0" intLanes=":J1_0_0_0 :J1_0_6_0 :J1_0_12_0 :J1_0_13_0 :J1_0_14_0 :J1_0_15_0"/>
    <junction id=":J1_0_21_0" type="internal" x="8.29" y="1412.24" incLanes=":J1_0_12_0 SE0_W1_J1_0_0" intLanes=":J1_0_1_0 :J1_0_6_0 :J1_0_7_0 :J1_0_8_0 :J1_0_9_0 :J1_0_10_0 :J1_0_11_0"/>
    <junction id=":J1_0_22_0" type="internal" x="7.79" y="1412.12" incLanes=":J1_0_15_0 SE0_W1_J1_0_0 SE4_N0_J1_0_0 SE5_J2_0_J1_0_0" intLanes=":J1_0_1_0 :J1_0_2_0 :J1_0_4_0 :J1_0_5_0 :J1_0_6_0 :J1_0_8_0 :J1_0_9_0 :J1_0_11_0"/>
    <junction id=":J2_0_16_0" type="internal" x="1314.56" y="897.79" incLanes=":J2_0_3_0 SE2_W2_J2_0_0 SE5_J1_0_J2_0_0 SE6_S0_J2_0_0" intLanes=":J2_0_4_0 :J2_0_10_0 :J2_0_12_0"/>
    <junction id=":J2_0_17_0" type="internal" x="1817.99" y="959.94" incLanes=":J2_0_6_0 SE5_J1_0_J2_0_0" intLanes=":J2_0_0_0 :J2_0_1_0 :J2_0_8_0 :J2_0_9_0 :J2_0_13_0 :J2_0_14_0 :J2_0_15_0"/>
    <junction id=":J2_0_18_0" type="internal" x="1098.44" y="799.43" incLanes=":J2_0_7_0 SE2_W2_J2_0_0 SE3_E2_J2_0_0 SE5_J1_0_J2_0_0" intLanes=":J2_0_1_0 :J2_0_9_0 :J2_0_14_0"/>
    <junction id=":J2_0_19_0" type="internal" x="1024.06" y="1081.05" incLanes=":J2_0_10_0 SE6_S0_J2_0_0" intLanes=":J2_0_0_0 :J2_0_1_0 :J2_0_3_0 :J2_0_4_0 :J2_0_5_0 :J2_0_12_0 :J2_0_14_0 :J2_0_15_0"/>
    <junction id=":J2_0_20_0" type="internal" x="1023.67" y="1082.37" incLanes=":J2_0_11_0 SE2_W2_J2_0_0 SE3_E2_J2_0_0 SE6_S0_J2_0_0" intLanes=":J2_0_2_0 :J2_0_5_0 :J2_0_13_0"/>
    <junction id=":J2_0_21_0" type="internal" x="1823.07" y="959.40" incLanes=":J2_0_15_0 SE3_E2_J2_0_0 SE5_J1_0_J2_0_0 SE6_S0_J2_0_0" intLanes=":J2_0_0_0 :J2_0_2_0 :J2_0_5_0 :J2_0_6_0 :J2_0_8_0 :J2_0_9_0 :J2_0_10_0"/>

    <connection from="SE0_J1_0_W1" to="SE0_W1_J1_0" fromLane="0" toLane="0" via=":W1_0_0" dir="t" state="M"/>
    <connection from="SE0_W1_J1_0" to="SE4_J1_0_N0" fromLane="0" toLane="0" via=":J1_0_8_0" tl="J1_0" linkIndex="8" dir="l" state="O"/>
    <connection from="SE0_W1_J1_0" to="SE1_J1_0_E1" fromLane="0" toLane="0" via=":J1_0_9_0" tl="J1_0" linkIndex="9" dir="s" state="O"/>
    <connection from="SE0_W1_J1_0" to="SE5_J1_0_J2_0" fromLane="0" toLane="0" via=":J1_0_10_0" tl="J1_0" linkIndex="10" dir="r" state="O"/>
    <connection from="SE0_W1_J1_0" to="SE0_J1_0_W1" fromLane="0" toLane="0" via=":J1_0_11_0" tl="J1_0" linkIndex="11" dir="t" state="o"/>
    <connection from="SE1_E1_J1_0" to="SE5_J1_0_J2_0" fromLane="0" toLane="0" via=":J1_0_12_0" tl="J1_0" linkIndex="12" dir="l" state="o"/>
    <connection from="SE1_E1_J1_0" to="SE4_J1_0_N0" fromLane="0" toLane="0" via=":J1_0_13_0" tl="J1_0" linkIndex="13" dir="r" state="o"/>
    <connection from="SE1_E1_J1_0" to="SE0_J1_0_W1" fromLane="0" toLane="0" via=":J1_0_14_0" tl="J1_0" linkIndex="14" dir="s" state="O"/>
    <connection from="SE1_E1_J1_0" to="SE1_J1_0_E1" fromLane="0" toLane="0" via=":J1_0_15_0" tl="J1_0" linkIndex="15" dir="t" state="o"/>
    <connection from="SE1_J1_0_E1" to="SE1_E1_J1_0" fromLane="0" toLane="0" via=":E1_0_0" dir="t" state="M"/>
    <connection from="SE2_J2_0_W2" to="SE2_W2_J2_0" fromLane="0" toLane="0" via=":W2_0_0" dir="t" state="M"/>
    <connection from="SE2_W2_J2_0" to="SE3_J2_0_E2" fromLane="0" toLane="0" via=":J2_0_12_0" tl="J2_0" linkIndex="12" dir="s" state="O"/>
    <connection from="SE2_W2_J2_0" to="SE5_J2_0_J1_0" fromLane="0" toLane="0" via=":J2_0_13_0" tl="J2_0" linkIndex="13" dir="l" state="O"/>
    <connection from="SE2_W2_J2_0" to="SE6_J2_0_S0" fromLane="0" toLane="0" via=":J2_0_14_0" tl="J2_0" linkIndex="14" dir="r" state="o"/>
    <connection from="SE2_W2_J2_0" to="SE2_J2_0_W2" fromLane="0" toLane="0" via=":J2_0_15_0" tl="J2_0" linkIndex="15" dir="t" state="o"/>
    <connection from="SE3_E2_J2_0" to="SE2_J2_0_W2" fromLane="0" toLane="0" via=":J2_0_0_0" tl="J2_0" linkIndex="0" dir="s" state="o"/>
    <connection from="SE3_E2_J2_0" to="SE6_J2_0_S0" fromLane="0" toLane="0" via=":J2_0_1_0" tl="J2_0" linkIndex="1" dir="l" state="o"/>
    <connection from="SE3_E2_J2_0" to="SE5_J2_0_J1_0" fromLane="0" toLane="0" via=":J2_0_2_0" tl="J2_0" linkIndex="2" dir="r" state="o"/>
    <connection from="SE3_E2_J2_0" to="SE3_J2_0_E2" fromLane="0" toLane="0" via=":J2_0_3_0" tl="J2_0" linkIndex="3" dir="t" state="o"/>
    <connection from="SE3_J2_0_E2" to="SE3_E2_J2_0" fromLane="0" toLane="0" via=":E2_0_0" dir="t" state="M"/>
    <connection from="SE4_J1_0_N0" to="SE4_N0_J1_0" fromLane="0" toLane="0" via=":N0_0_0" dir="t" state="M"/>
    <connection from="SE4_N0_J1_0" to="SE0_J1_0_W1" fromLane="0" toLane="0" via=":J1_0_0_0" tl="J1_0" linkIndex="0" dir="r" state="o"/>
    <connection from="SE4_N0_J1_0" to="SE5_J1_0_J2_0" fromLane="0" toLane="0" via=":J1_0_1_0" tl="J1_0" linkIndex="1" dir="s" state="o"/>
    <connection from="SE4_N0_J1_0" to="SE1_J1_0_E1" fromLane="0" toLane="0" via=":J1_0_2_0" tl="J1_0" linkIndex="2" dir="l" state="o"/>
    <connection from="SE4_N0_J1_0" to="SE4_J1_0_N0" fromLane="0" toLane="0" via=":J1_0_3_0" tl="J1_0" linkIndex="3" dir="t" state="o"/>
    <connection from="SE5_J1_0_J2_0" to="SE2_J2_0_W2" fromLane="0" toLane="0" via=":J2_0_8_0" tl="J2_0" linkIndex="8" dir="r" state="o"/>
    <connection from="SE5_J1_0_J2_0" to="SE6_J2_0_S0" fromLane="0" toLane="0" via=":J2_0_9_0" tl="J2_0" linkIndex="9" dir="s" state="o"/>
    <connection from="SE5_J1_0_J2_0" to="SE3_J2_0_E2" fromLane="0" toLane="0" via=":J2_0_10_0" tl="J2_0" linkIndex="10" dir="l" state="o"/>
    <connection from="SE5_J1_0_J2_0" to="SE5_J2_0_J1_0" fromLane="0" toLane="0" via=":J2_0_11_0" tl="J2_0" linkIndex="11" dir="t" state="o"/>
    <connection from="SE5_J2_0_J1_0" to="SE4_J1_0_N0" fromLane="0" toLane="0" via=":J1_0_4_0" tl="J1_0" linkIndex="4" dir="s" state="o"/>
    <connection from="SE5_J2_0_J1_0" to="SE1_J1_0_E1" fromLane="0" toLane="0" via=":J1_0_5_0" tl="J1_0" linkIndex="5" dir="r" state="o"/>
    <connection from="SE5_J2_0_J1_0" to="SE0_J1_0_W1" fromLane="0" toLane="0" via=":J1_0_6_0" tl="J1_0" linkIndex="6" dir="l" state="o"/>
    <connection from="SE5_J2_0_J1_0" to="SE5_J1_0_J2_0" fromLane="0" toLane="0" via=":J1_0_7_0" tl="J1_0" linkIndex="7" dir="t" state="o"/>
    <connection from="SE6_J2_0_S0" to="SE6_S0_J2_0" fromLane="0" toLane="0" via=":S0_0_0" dir="t" state="M"/>
    <connection from="SE6_S0_J2_0" to="SE3_J2_0_E2" fromLane="0" toLane="0" via=":J2_0_4_0" tl="J2_0" linkIndex="4" dir="r" state="o"/>
    <connection from="SE6_S0_J2_0" to="SE5_J2_0_J1_0" fromLane="0" toLane="0" via=":J2_0_5_0" tl="J2_0" linkIndex="5" dir="s" state="o"/>
    <connection from="SE6_S0_J2_0" to="SE2_J2_0_W2" fromLane="0" toLane="0" via=":J2_0_6_0" tl="J2_0" linkIndex="6" dir="l" state="o"/>
    <connection from="SE6_S0_J2_0" to="SE6_J2_0_S0" fromLane="0" toLane="0" via=":J2_0_7_0" tl="J2_0" linkIndex="7" dir="t" state="o"/>

    <connection from=":E1_0" to="SE1_E1_J1_0" fromLane="0" toLane="0" dir="t" state="M"/>
    <connection from=":E2_0" to="SE3_E2_J2_0" fromLane="0" toLane="0" dir="t" state="M"/>
    <connection from=":J1_0_0" to="SE0_J1_0_W1" fromLane="0" toLane="0" dir="r" state="M"/>
    <connection from=":J1_0_1" to="SE5_J1_0_J2_0" fromLane="0" toLane="0" dir="s" state="M"/>
    <connection from=":J1_0_2" to="SE1_J1_0_E1" fromLane="0" toLane="0" via=":J1_0_16_0" dir="l" state="m"/>
    <connection from=":J1_0_16" to="SE1_J1_0_E1" fromLane="0" toLane="0" dir="l" state="M"/>
    <connection from=":J1_0_3" to="SE4_J1_0_N0" fromLane="0" toLane="0" via=":J1_0_17_0" dir="t" state="m"/>
    <connection from=":J1_0_17" to="SE4_J1_0_N0" fromLane="0" toLane="0" dir="t" state="M"/>
    <connection from=":J1_0_4" to="SE4_J1_0_N0" fromLane="0" toLane="0" dir="s" state="M"/>
    <connection from=":J1_0_5" to="SE1_J1_0_E1" fromLane="0" toLane="0" dir="r" state="M"/>