<?xml version="1.0" encoding="UTF-8"?>

<!-- generated on 2026-04-12T11:39:24.112990+05:30 by Eclipse SUMO netconvert 1.26.0
<netconvertConfiguration xmlns:xsi="http://www.w3.org/2001/XMLSchema-instance" xsi:noNamespaceSchemaLocation="http://sumo.dlr.de/xsd/netconvertConfiguration.xsd">

    <input>
        <node-files value="C:\Users\santhosh\OneDrive\Desktop\trafiic pro\web_runs\20260412_113923_807150\area.nod.xml"/>
        <edge-files value="C:\Users\santhosh\OneDrive\Desktop\trafiic pro\web_runs\20260412_113923_807150\area.edg.xml"/>
    </input>

    <output>
        <output-file value="C:\Users\santhosh\OneDrive\Desktop\trafiic pro\web_runs\20260412_113923_807150\area.net.xml"/>
    </output>

    <building_defaults>
        <default.lanewidth value="1.8"/>
    </building_defaults>

    <junctions>
        <junctions.corner-detail value="0"/>
    </junctions>

</netconvertConfiguration>
-->

<net version="1.20" limitTurnSpeed="5.50" xmlns:xsi="http://www.w3.org/2001/XMLSchema-instance" xsi:noNamespaceSchemaLocation="http://sumo.dlr.de/xsd/net_file.xsd">

    <location netOffset="-180.00,-191.06" convBoundary="0.00,0.00,1826.76,914.65" origBoundary="180.00,191.06,2006.76,1105.71" projParameter="!"/>

    <edge id=":P0_0" function="internal">
        <lane id=":P0_0_0" index="0" speed="9.32" length="15.77" width="1.80" shape="883.85,647.06 882.39,645.85 881.25,642.99 880.41,638.47 879.90,632.29"/>
    </edge>
    <edge id=":P0_1" function="internal">
        <lane id=":P0_1_0" index="0" speed="5.20" length="5.98" width="1.80" shape="883.85,647.06 883.05,647.21 882.33,648.08 881.68,649.64 881.11,651.91"/>
    </edge>
    <edge id=":P0_2" function="internal">
        <lane id=":P0_2_0" index="0" speed="13.90" length="9.13" width="1.80" shape="883.85,647.06 881.21,646.55 879.36,646.44 877.49,646.55 874.78,646.71"/>
    </edge>
    <edge id=":P0_3" function="internal">
        <lane id=":P0_3_0" index="0" speed="13.90" length="152.40" width="1.80" shape="883.85,647.06 874.62,623.96 858.69,574.34 842.76,525.14 833.52,503.32"/>
    </edge>
    <edge id=":P0_4" function="internal">
        <lane id=":P0_4_0" index="0" speed="13.90" length="1.45" width="1.80" shape="883.85,647.06 883.46,645.66"/>
    </edge>
    <edge id=":P0_5" function="internal">
        <lane id=":P0_5_0" index="0" speed="2.74" length="2.16" width="1.80" shape="883.85,647.06 883.30,646.47 883.18,645.98 883.50,645.59 883.82,645.47"/>
    </edge>
    <edge id=":P0_36" function="internal">
        <lane id=":P0_36_0" index="0" speed="13.90" length="152.02" width="1.80" shape="883.46,645.66 842.91,499.15"/>
    </edge>
    <edge id=":P0_37" function="internal">
        <lane id=":P0_37_0" index="0" speed="2.74" length="0.47" width="1.80" shape="883.82,645.47 884.26,645.30"/>
    </edge>
    <edge id=":P0_6" function="internal">
        <lane id=":P0_6_0" index="0" speed="13.90" length="136.48" width="1.80" shape="843.38,500.89 847.94,523.00 860.73,570.21 873.98,615.61 879.90,632.29"/>
    </edge>
    <edge id=":P0_7" function="internal">
        <lane id=":P0_7_0" index="0" speed="13.90" length="150.09" width="1.80" shape="843.38,500.89 884.26,645.30"/>
    </edge>
    <edge id=":P0_8" function="internal">
        <lane id=":P0_8_0" index="0" speed="13.90" length="155.66" width="1.80" shape="843.38,500.89 881.11,651.91"/>
    </edge>
    <edge id=":P0_9" function="internal">
        <lane id=":P0_9_0" index="0" speed="13.90" length="149.28" width="1.80" shape="843.38,500.89 846.95,524.20 859.14,574.23 871.30,624.04 874.78,646.71"/>
    </edge>
    <edge id=":P0_10" function="internal">
        <lane id=":P0_10_0" index="0" speed="13.90" length="10.15" width="1.80" shape="843.38,500.89 833.52,503.32"/>
    </edge>
    <edge id=":P0_11" function="internal">
        <lane id=":P0_11_0" index="0" speed="2.74" length="2.29" width="1.80" shape="843.38,500.89 842.61,500.63 842.28,500.26 842.38,499.76 842.69,499.41"/>
    </edge>
    <edge id=":P0_38" function="internal">
        <lane id=":P0_38_0" index="0" speed="2.74" length="0.34" width="1.80" shape="842.69,499.41 842.91,499.15"/>
    </edge>
    <edge id=":P0_12" function="internal">
        <lane id=":P0_12_0" index="0" speed="13.90" length="10.18" width="1.80" shape="833.02,501.58 842.91,499.15"/>
    </edge>
    <edge id=":P0_13" function="internal">
        <lane id=":P0_13_0" index="0" speed="13.90" length="149.51" width="1.80" shape="833.02,501.58 850.85,506.34 864.60,529.71 874.28,571.69 879.90,632.29"/>
    </edge>
    <edge id=":P0_14" function="internal">
        <lane id=":P0_14_0" index="0" speed="13.90" length="152.68" width="1.80" shape="833.02,501.58 842.40,523.41 858.64,572.60 874.89,622.21 884.26,645.30"/>
    </edge>
    <edge id=":P0_15" function="internal">
        <lane id=":P0_15_0" index="0" speed="13.90" length="157.83" width="1.80" shape="833.02,501.58 881.11,651.91"/>
    </edge>
    <edge id=":P0_16" function="internal">
        <lane id=":P0_16_0" index="0" speed="13.90" length="151.01" width="1.80" shape="833.02,501.58 874.78,646.71"/>
    </edge>
    <edge id=":P0_17" function="internal">
        <lane id=":P0_17_0" index="0" speed="2.74" length="1.32" width="1.80" shape="833.02,501.58 833.80,501.83 834.14,502.20"/>
    </edge>
    <edge id=":P0_39" function="internal">
        <lane id=":P0_39_0" index="0" speed="2.74" length="1.32" width="1.80" shape="834.14,502.20 834.05,502.70 833.52,503.32"/>
    </edge>
    <edge id=":P0_18" function="internal">
        <lane id=":P0_18_0" index="0" speed="13.90" length="147.35" width="1.80" shape="874.27,644.92 833.52,503.32"/>
    </edge>
    <edge id=":P0_19" function="internal">
        <lane id=":P0_19_0" index="0" speed="13.90" length="149.22" width="1.80" shape="874.27,644.92 870.80,622.26 858.65,572.47 846.48,522.46 842.91,499.15"/>
    </edge>
    <edge id=":P0_20" function="internal">
        <lane id=":P0_20_0" index="0" speed="8.13" length="15.35" width="1.80" shape="874.27,644.92 876.97,644.05 878.81,641.66 879.78,637.74 879.90,632.29"/>
    </edge>
    <edge id=":P0_21" function="internal">
        <lane id=":P0_21_0" index="0" speed="13.90" length="10.06" width="1.80" shape="874.27,644.92 877.25,644.75 879.31,644.62 881.35,644.74 884.26,645.30"/>
    </edge>
    <edge id=":P0_22" function="internal">
        <lane id=":P0_22_0" index="0" speed="6.69" length="5.75" width="1.80" shape="874.27,644.92 877.81,645.25 879.73,646.30"/>
    </edge>
    <edge id=":P0_23" function="internal">
        <lane id=":P0_23_0" index="0" speed="2.77" length="1.36" width="1.80" shape="874.27,644.92 875.06,645.17 875.41,645.56"/>
    </edge>
    <edge id=":P0_40" function="internal">
        <lane id=":P0_40_0" index="0" speed="6.69" length="6.11" width="1.80" shape="879.73,646.30 880.14,646.53 881.24,648.75 881.11,651.91"/>
    </edge>
    <edge id=":P0_41" function="internal">
        <lane id=":P0_41_0" index="0" speed="2.77" length="1.36" width="1.80" shape="875.41,645.56 875.32,646.07 874.78,646.71"/>
    </edge>
    <edge id=":P0_24" function="internal">
        <lane id=":P0_24_0" index="0" speed="5.59" length="8.08" width="1.80" shape="879.34,651.55 879.44,649.36 878.72,647.82 877.16,646.94 874.78,646.71"/>
    </edge>
    <edge id=":P0_25" function="internal">
        <lane id=":P0_25_0" index="0" speed="13.90" length="155.16" width="1.80" shape="879.34,651.55 833.52,503.32"/>
    </edge>
    <edge id=":P0_26" function="internal">
        <lane id=":P0_26_0" index="0" speed="13.90" length="156.70" width="1.80" shape="879.34,651.55 842.91,499.15"/>
    </edge>
    <edge id=":P0_27" function="internal">
        <lane id=":P0_27_0" index="0" speed="13.90" length="19.31" width="1.80" shape="879.34,651.55 879.89,647.18 880.09,641.96 880.06,636.72 879.90,632.29"/>
    </edge>
    <edge id=":P0_28" function="internal">
        <lane id=":P0_28_0" index="0" speed="6.07" length="8.37" width="1.80" shape="879.34,651.55 880.09,649.43 881.35,647.30 882.83,645.74 884.26,645.30"/>
    </edge>
    <edge id=":P0_29" function="internal">
        <lane id=":P0_29_0" index="0" speed="2.74" length="2.08" width="1.80" shape="879.34,651.55 879.92,650.98 880.41,650.85 880.80,651.16 880.90,651.40"/>
    </edge>
    <edge id=":P0_42" function="internal">
        <lane id=":P0_42_0" index="0" speed="2.74" length="0.55" width="1.80" shape="880.90,651.40 881.11,651.91"/>
    </edge>
    <edge id=":P0_30" function="internal">
        <lane id=":P0_30_0" index="0" speed="13.90" length="19.76" width="1.80" shape="881.70,632.20 881.85,636.70 881.87,642.09 881.66,647.47 881.11,651.91"/>
    </edge>
    <edge id=":P0_31" function="internal">
        <lane id=":P0_31_0" index="0" speed="8.54" length="16.98" width="1.80" shape="881.70,632.20 881.27,636.70 879.77,641.41 877.51,645.14 874.78,646.71"/>
    </edge>
    <edge id=":P0_32" function="internal">
        <lane id=":P0_32_0" index="0" speed="13.90" length="148.78" width="1.80" shape="881.70,632.20 876.03,572.28 866.11,530.82 851.94,507.84 833.52,503.32"/>
    </edge>
    <edge id=":P0_33" function="internal">
        <lane id=":P0_33_0" index="0" speed="13.90" length="146.57" width="1.80" shape="881.70,632.20 876.55,570.78 868.37,528.13 857.16,504.26 842.91,499.15"/>
    </edge>
    <edge id=":P0_34" function="internal">
        <lane id=":P0_34_0" index="0" speed="8.67" length="13.60" width="1.80" shape="881.70,632.20 882.10,637.76 882.66,641.80 883.38,644.32 884.26,645.30"/>
    </edge>
    <edge id=":P0_35" function="internal">
        <lane id=":P0_35_0" index="0" speed="2.74" length="2.17" width="1.80" shape="881.70,632.20 881.28,632.89 880.84,633.14 880.38,632.94 880.17,632.65"/>
    </edge>
    <edge id=":P0_43" function="internal">
        <lane id=":P0_43_0" index="0" speed="2.74" length="0.45" width="1.80" shape="880.17,632.65 879.90,632.29"/>
    </edge>
    <edge id=":P1_0" function="internal">
        <lane id=":P1_0_0" index="0" speed="13.90" length="68.84" width="1.80" shape="1237.15,727.57 1237.70,739.59 1239.21,765.29 1240.73,789.30 1241.29,796.28"/>
    </edge>
    <edge id=":P1_1" function="internal">
        <lane id=":P1_1_0" index="0" speed="13.90" length="9.09" width="1.80" shape="1237.15,727.57 1234.51,728.07 1232.66,728.22 1230.81,728.01 1228.19,727.44"/>
    </edge>
    <edge id=":P1_2" function="internal">
        <lane id=":P1_2_0" index="0" speed="2.74" length="2.27" width="1.80" shape="1237.15,727.57 1236.40,727.27 1236.09,726.87 1236.22,726.38 1236.54,726.06"/>
    </edge>
    <edge id=":P1_9" function="internal">
        <lane id=":P1_9_0" index="0" speed="2.74" length="0.36" width="1.80" shape="1236.54,726.06 1236.80,725.81"/>
    </edge>
    <edge id=":P1_3" function="internal">
        <lane id=":P1_3_0" index="0" speed="13.90" length="8.31" width="1.80" shape="1228.60,725.69 1231.00,726.21 1232.69,726.40 1234.38,726.26 1236.80,725.81"/>
    </edge>
    <edge id=":P1_4" function="internal">
        <lane id=":P1_4_0" index="0" speed="13.90" length="73.06" width="1.80" shape="1228.60,725.69 1233.26,731.00 1236.93,744.54 1239.61,766.30 1241.29,796.28"/>
    </edge>
    <edge id=":P1_5" function="internal">
        <lane id=":P1_5_0" index="0" speed="2.74" length="2.21" width="1.80" shape="1228.60,725.69 1229.15,726.28 1229.27,726.77 1228.95,727.15 1228.58,727.29"/>
    </edge>
    <edge id=":P1_10" function="internal">
        <lane id=":P1_10_0" index="0" speed="2.74" length="0.41" width="1.80" shape="1228.58,727.29 1228.19,727.44"/>
    </edge>
    <edge id=":P1_6" function="internal">
        <lane id=":P1_6_0" index="0" speed="13.90" length="70.42" width="1.80" shape="1243.09,796.22 1241.23,789.30 1236.65,765.37 1231.57,739.67 1228.19,727.44"/>
    </edge>
    <edge id=":P1_7" function="internal">
        <lane id=":P1_7_0" index="0" speed="13.90" length="70.98" width="1.80" shape="1243.09,796.22 1241.77,765.13 1240.28,743.03 1238.62,729.92 1236.80,725.81"/>
    </edge>
    <edge id=":P1_8" function="internal">
        <lane id=":P1_8_0" index="0" speed="2.74" length="0.30" width="1.80" shape="1243.09,796.22 1242.93,796.48"/>
    </edge>
    <edge id=":P1_11" function="internal">
        <lane id=":P1_11_0" index="0" speed="2.74" length="2.33" width="1.80" shape="1242.93,796.48 1242.66,796.91 1242.22,797.15 1241.76,796.94 1241.29,796.28"/>
    </edge>
    <edge id=":P2_0" function="internal">
        <lane id=":P2_0_0" index="0" speed="7.51" length="10.48" width="1.80" shape="1293.39,380.56 1290.76,380.88 1288.64,382.00 1287.03,383.91 1285.92,386.62"/>
    </edge>
    <edge id=":P2_1" function="internal">
        <lane id=":P2_1_0" index="0" speed="13.90" length="13.28" width="1.80" shape="1293.39,380.56 1289.91,380.58 1286.77,380.85 1283.66,381.40 1280.28,382.23"/>
    </edge>
    <edge id=":P2_2" function="internal">
        <lane id=":P2_2_0" index="0" speed="6.39" length="5.01" width="1.80" shape="1293.39,380.56 1290.18,380.01 1288.77,378.98"/>
    </edge>
    <edge id=":P2_3" function="internal">
        <lane id=":P2_3_0" index="0" speed="2.74" length="2.17" width="1.80" shape="1293.39,380.56 1292.73,380.09 1292.52,379.63 1292.75,379.19 1293.05,379.00"/>
    </edge>
    <edge id=":P2_16" function="internal">
        <lane id=":P2_16_0" index="0" speed="6.39" length="6.31" width="1.80" shape="1288.77,378.98 1288.25,378.59 1287.61,376.28 1288.25,373.08"/>
    </edge>
    <edge id=":P2_17" function="internal">
        <lane id=":P2_17_0" index="0" speed="2.74" length="0.46" width="1.80" shape="1293.05,379.00 1293.44,378.76"/>
    </edge>
    <edge id=":P2_4" function="internal">
        <lane id=":P2_4_0" index="0" speed="5.34" length="7.68" width="1.80" shape="1289.95,373.68 1289.51,375.85 1289.95,377.42 1291.26,378.39 1293.44,378.76"/>
    </edge>
    <edge id=":P2_5" function="internal">
        <lane id=":P2_5_0" index="0" speed="13.90" length="13.55" width="1.80" shape="1289.95,373.68 1285.92,386.62"/>
    </edge>
    <edge id=":P2_6" function="internal">
        <lane id=":P2_6_0" index="0" speed="10.37" length="6.38" width="1.80" shape="1289.95,373.68 1288.47,376.67 1286.48,378.97"/>
    </edge>
    <edge id=":P2_7" function="internal">
        <lane id=":P2_7_0" index="0" speed="2.74" length="2.16" width="1.80" shape="1289.95,373.68 1289.30,374.17 1288.80,374.23 1288.45,373.87 1288.36,373.54"/>
    </edge>
    <edge id=":P2_18" function="internal">
        <lane id=":P2_18_0" index="0" speed="10.37" length="7.07" width="1.80" shape="1286.48,378.97 1286.37,379.10 1283.64,380.95 1280.28,382.23"/>
    </edge>
    <edge id=":P2_19" function="internal">
        <lane id=":P2_19_0" index="0" speed="2.74" length="0.47" width="1.80" shape="1288.36,373.54 1288.25,373.08"/>
    </edge>
    <edge id=":P2_8" function="internal">
        <lane id=":P2_8_0" index="0" speed="9.69" length="11.70" width="1.80" shape="1279.81,380.50 1282.75,379.38 1285.14,377.77 1286.97,375.67 1288.25,373.08"/>
    </edge>
    <edge id=":P2_9" function="internal">
        <lane id=":P2_9_0" index="0" speed="13.90" length="13.80" width="1.80" shape="1279.81,380.50 1283.27,379.65 1286.56,379.09 1289.88,378.79 1293.44,378.76"/>
    </edge>
    <edge id=":P2_10" function="internal">
        <lane id=":P2_10_0" index="0" speed="6.16" length="5.60" width="1.80" shape="1279.81,380.50 1283.34,380.02 1285.24,380.76"/>
    </edge>
    <edge id=":P2_11" function="internal">
        <lane id=":P2_11_0" index="0" speed="2.74" length="2.29" width="1.80" shape="1279.81,380.50 1280.57,380.75 1280.91,381.13 1280.81,381.62 1280.50,381.98"/>
    </edge>
    <edge id=":P2_20" function="internal">
        <lane id=":P2_20_0" index="0" speed="6.16" length="6.26" width="1.80" shape="1285.24,380.76 1285.54,380.88 1286.40,383.08 1285.92,386.62"/>
    </edge>
    <edge id=":P2_21" function="internal">
        <lane id=":P2_21_0" index="0" speed="2.74" length="0.34" width="1.80" shape="1280.50,381.98 1280.28,382.23"/>
    </edge>
    <edge id=":P2_12" function="internal">
        <lane id=":P2_12_0" index="0" speed="5.01" length="7.58" width="1.80" shape="1284.19,386.15 1284.49,383.89 1283.94,382.48 1282.54,381.93 1280.28,382.23"/>
    </edge>
    <edge id=":P2_13" function="internal">
        <lane id=":P2_13_0" index="0" speed="13.90" length="13.68" width="1.80" shape="1284.19,386.15 1288.25,373.08"/>
    </edge>
    <edge id=":P2_14" function="internal">
        <lane id=":P2_14_0" index="0" speed="8.30" length="6.76" width="1.80" shape="1284.19,386.15 1285.54,382.85 1287.54,380.51 1287.64,380.46"/>
    </edge>
    <edge id=":P2_15" function="internal">
        <lane id=":P2_15_0" index="0" speed="2.74" length="2.31" width="1.80" shape="1284.19,386.15 1284.80,385.62 1285.29,385.52 1285.67,385.85 1285.82,386.32"/>
    </edge>
    <edge id=":P2_22" function="internal">
        <lane id=":P2_22_0" index="0" speed="8.30" length="6.14" width="1.80" shape="1287.64,380.46 1290.17,379.15 1293.44,378.76"/>
    </edge>
    <edge id=":P2_23" function="internal">
        <lane id=":P2_23_0" index="0" speed="2.74" length="0.31" width="1.80" shape="1285.82,386.32 1285.92,386.62"/>
    </edge>
    <edge id=":P3_0" function="internal">
        <lane id=":P3_0_0" index="0" speed="2.74" length="2.63" width="1.80" shape="0.01,667.94 -0.67,667.50 -0.90,667.05 -0.68,666.60 -0.01,666.14"/>
    </edge>
    <edge id=":P4_0" function="internal">
        <lane id=":P4_0_0" index="0" speed="2.74" length="2.63" width="1.80" shape="1826.62,616.48 1827.36,616.82 1827.65,617.23 1827.50,617.71 1826.90,618.26"/>
    </edge>
    <edge id=":P5_0" function="internal">
        <lane id=":P5_0_0" index="0" speed="2.74" length="2.63" width="1.80" shape="406.19,601.32 405.43,601.03 405.11,600.64 405.23,600.15 405.79,599.56"/>
    </edge>
    <edge id=":P6_0" function="internal">
        <lane id=":P6_0_0" index="0" speed="2.74" length="2.63" width="1.80" shape="1826.83,403.82 1827.47,404.33 1827.66,404.79 1827.40,405.22 1826.69,405.62"/>
    </edge>
    <edge id=":P7_0" function="internal">
        <lane id=":P7_0_0" index="0" speed="2.74" length="2.63" width="1.80" shape="827.56,914.83 826.99,915.40 826.50,915.53 826.10,915.22 825.80,914.47"/>
    </edge>
    <edge id=":P8_0" function="internal">
        <lane id=":P8_0_0" index="0" speed="2.74" length="2.63" width="1.80" shape="1022.82,-0.36 1023.50,-0.80 1024.01,-0.83 1024.33,-0.44 1024.48,0.36"/>
    </edge>
    <edge id=":P9_0" function="internal">
        <lane id=":P9_0_0" index="0" speed="2.74" length="2.63" width="1.80" shape="1401.89,-0.17 1402.46,-0.75 1402.94,-0.88 1403.34,-0.58 1403.65,0.17"/>
    </edge>

    <edge id="E0_P0_P3" from="P0" to="P3" priority="-1" shape="881.48,645.58 405.99,661.51 0.00,667.04">
        <lane id="E0_P0_P3_0" index="0" speed="13.90" length="875.07" width="1.80" shape="874.78,646.71 406.01,662.41 0.01,667.94"/>
    </edge>
    <edge id="E0_P3_P0" from="P3" to="P0" priority="-1" shape="0.00,667.04 405.99,661.51 881.48,645.58">
        <lane id="E0_P3_P0_0" index="0" speed="13.90" length="874.58" width="1.80" shape="-0.01,666.14 405.97,660.61 874.27,644.92"/>
    </edge>
    <edge id="E1_P0_P1" from="P0" to="P1" priority="-1">
        <lane id="E1_P0_P1_0" index="0" speed="13.90" length="353.59" width="1.80" shape="884.26,645.30 1228.60,725.69"/>
    </edge>
    <edge id="E1_P1_P0" from="P1" to="P0" priority="-1">
        <lane id="E1_P1_P0_0" index="0" speed="13.90" length="353.59" width="1.80" shape="1228.19,727.44 883.85,647.06"/>
    </edge>
    <edge id="E2_P1_P4" from="P1" to="P4" priority="-1" shape="1232.67,727.56 1623.83,648.57 1826.76,617.37">
        <lane id="E2_P1_P4_0" index="0" speed="13.90" length="600.02" width="1.80" shape="1236.80,725.81 1623.67,647.68 1826.62,616.48"/>
    </edge>
    <edge id="E2_P4_P1" from="P4" to="P1" priority="-1" shape="1826.76,617.37 1623.83,648.57 1232.67,727.56">
        <lane id="E2_P4_P1_0" index="0" speed="13.90" length="599.94" width="1.80" shape="1826.90,618.26 1623.99,649.46 1237.15,727.57"/>
    </edge>
    <edge id="E3_P0_P5" from="P0" to="P5" priority="-1" shape="839.25,501.08 405.99,600.44">
        <lane id="E3_P0_P5_0" index="0" speed="13.90" length="438.43" width="1.80" shape="833.52,503.32 406.19,601.32"/>
    </edge>
    <edge id="E3_P5_P0" from="P5" to="P0" priority="-1" shape="405.99,600.44 839.25,501.08">
        <lane id="E3_P5_P0_0" index="0" speed="13.90" length="438.33" width="1.80" shape="405.79,599.56 833.02,501.58"/>
    </edge>
    <edge id="E4_P0_P2" from="P0" to="P2" priority="-1" shape="839.25,501.08 1286.94,379.49">
        <lane id="E4_P0_P2_0" index="0" speed="13.90" length="452.72" width="1.80" shape="842.91,499.15 1279.81,380.50"/>
    </edge>
    <edge id="E4_P2_P0" from="P2" to="P0" priority="-1" shape="1286.94,379.49 839.25,501.08">
        <lane id="E4_P2_P0_0" index="0" speed="13.90" length="452.72" width="1.80" shape="1280.28,382.23 843.38,500.89"/>
    </edge>
    <edge id="E5_P2_P6" from="P2" to="P6" priority="-1" shape="1286.94,379.49 1623.83,388.12 1826.76,404.72">
        <lane id="E5_P2_P6_0" index="0" speed="13.90" length="534.18" width="1.80" shape="1293.44,378.76 1623.88,387.22 1826.83,403.82"/>
    </edge>
    <edge id="E5_P6_P2" from="P6" to="P2" priority="-1" shape="1826.76,404.72 1623.83,388.12 1286.94,379.49">
        <lane id="E5_P6_P2_0" index="0" speed="13.90" length="534.08" width="1.80" shape="1826.69,405.62 1623.78,389.02 1293.39,380.56"/>
    </edge>
    <edge id="E6_P0_P7" from="P0" to="P7" priority="-1">
        <lane id="E6_P0_P7_0" index="0" speed="13.90" length="268.31" width="1.80" shape="881.11,651.91 827.56,914.83"/>
    </edge>
    <edge id="E6_P7_P0" from="P7" to="P0" priority="-1">
        <lane id="E6_P7_P0_0" index="0" speed="13.90" length="268.31" width="1.80" shape="825.80,914.47 879.34,651.55"/>
    </edge>
    <edge id="E7_P0_P8" from="P0" to="P8" priority="-1" shape="881.48,645.58 865.99,342.98 974.41,114.29 1023.65,0.00">
        <lane id="E7_P0_P8_0" index="0" speed="13.90" length="667.60" width="1.80" shape="879.90,632.29 865.08,342.80 973.59,113.92 1022.82,-0.36"/>
    </edge>
    <edge id="E7_P8_P0" from="P8" to="P0" priority="-1" shape="1023.65,0.00 974.41,114.29 865.99,342.98 881.48,645.58">
        <lane id="E7_P8_P0_0" index="0" speed="13.90" length="666.75" width="1.80" shape="1024.48,0.36 975.23,114.66 866.90,343.16 881.70,632.20"/>
    </edge>
    <edge id="E8_P1_P2" from="P1" to="P2" priority="-1" shape="1242.33,800.25 1234.39,571.67 1286.94,379.49">
        <lane id="E8_P1_P2_0" index="0" speed="13.90" length="417.08" width="1.80" shape="1241.29,796.28 1233.49,571.56 1284.19,386.15"/>
    </edge>
    <edge id="E8_P2_P1" from="P2" to="P1" priority="-1" shape="1286.94,379.49 1234.39,571.67 1242.33,800.25">
        <lane id="E8_P2_P1_0" index="0" speed="13.90" length="416.53" width="1.80" shape="1285.92,386.62 1235.29,571.78 1243.09,796.22"/>
    </edge>
    <edge id="E9_P2_P9" from="P2" to="P9" priority="-1" shape="1286.94,379.49 1380.66,114.29 1402.77,0.00">
        <lane id="E9_P2_P9_0" index="0" speed="13.90" length="391.07" width="1.80" shape="1288.25,373.08 1379.79,114.05 1401.89,-0.17"/>
    </edge>
    <edge id="E9_P9_P2" from="P9" to="P2" priority="-1" shape="1402.77,0.00 1380.66,114.29 1286.94,379.49">
        <lane id="E9_P9_P2_0" index="0" speed="13.90" length="391.34" width="1.80" shape="1403.65,0.17 1381.53,114.53 1289.95,373.68"/>
    </edge>

    <tlLogic id="P0" type="static" programID="0" offset="0">
        <phase duration="31" state="rrrrrrGGGGGgGrrrrrrrrrrrrrrrrrrrrrrr"/>
        <phase duration="3"  state="rrrrrryyyyyyyrrrrrrrrrrrrrrrrrrrrrrr"/>
        <phase duration="9"  state="rrrrrrrrrrrrrrrrrrrrrrrrrrrrrrrrrrrr"/>
        <phase duration="31" state="GGGgggrrrrrrrrrrrrGGgGggrrrrrrrrrrrr"/>
        <phase duration="3"  state="yyyyyyrrrrrrrrrrrryyyyyyrrrrrrrrrrrr"/>
        <phase duration="9"  state="rrrrrrrrrrrrrrrrrrrrrrrrrrrrrrrrrrrr"/>
        <phase duration="31" state="GrrrrrrrrrrrrrrrrrrrrrrrrrrrrrGGGGGg"/>
        <phase duration="3"  state="yrrrrrrrrrrrrrrrrrrrrrrrrrrrrryyyyyy"/>
        <phase duration="8"  state="rrrrrrrrrrrrrrrrrrrrrrrrrrrrrrrrrrrr"/>
        <phase duration="31" state="rrrrrrrrrrrrGGGGGgGrrrrrrrrrrrrrrrrr"/>
        <phase duration="3"  state="rrrrrrrrrrrryyyyyyyrrrrrrrrrrrrrrrrr"/>
        <phase duration="9"  state="rrrrrrrrrrrrrrrrrrrrrrrrrrrrrrrrrrrr"/>
        <phase duration="31" state="rrrrrrrrrrrrrrrrrrrrrrrrGGGGGgGrrrrr"/>
        <phase duration="3"  state="rrrrrrrrrrrrrrrrrrrrrrrryyyyyyyrrrrr"/>
        <phase duration="9"  state="rrrrrrrrrrrrrrrrrrrrrrrrrrrrrrrrrrrr"/>
    </tlLogic>
    <tlLogic id="P1" type="static" programID="0" offset="0">
        <phase duration="39" state="GGgGggrrr"/>
        <phase duration="3"  state="yyyyyyrrr"/>
        <phase duration="3"  state="rrrrrrrrr"/>
        <phase duration="39" state="GrrrrrGGg"/>
        <phase duration="3"  state="yrrrrryyy"/>
        <phase duration="3"  state="rrrrrrrrr"/>
    </tlLogic>
    <tlLogic id="P2" type="static" programID="0" offset="0">
        <phase duration="42" state="rrrrGGggrrrrGGgg"/>
        <phase duration="3"  state="rrrryyyyrrrryyyy"/>
        <phase duration="42" state="GGggrrrrGGggrrrr"/>
        <phase duration="3"  state="yyyyrrrryyyyrrrr"/>
    </tlLogic>

    <junction id="P0" type="traffic_light" x="881.48" y="645.58" incLanes="E1_P1_P0_0 E4_P2_P0_0 E3_P5_P0_0 E0_P3_P0_0 E6_P7_P0_0 E7_P8_P0_0" intLanes=":P0_0_0 :P0_1_0 :P0_2_0 :P0_3_0 :P0_36_0 :P0_37_0 :P0_6_0 :P0_7_0 :P0_8_0 :P0_9_0 :P0_10_0 :P0_38_0 :P0_12_0 :P0_13_0 :P0_14_0 :P0_15_0 :P0_16_0 :P0_39_0 :P0_18_0 :P0_19_0 :P0_20_0 :P0_21_0 :P0_40_0 :P0_41_0 :P0_24_0 :P0_25_0 :P0_26_0 :P0_27_0 :P0_28_0 :P0_42_0 :P0_30_0 :P0_31_0 :P0_32_0 :P0_33_0 :P0_34_0 :P0_43_0" shape="883.65,647.93 884.47,644.43 843.62,501.76 842.67,498.29 832.78,500.72 875.04,647.60 878.46,651.37 881.99,652.09 882.59,632.15 879.00,632.33">
        <request index="0"  response="000010011000000000000110000001000000" foes="100010011000000100000110000001000000" cont="0"/>
        <request index="1"  response="011111001000000000001010000101000000" foes="011111101000010100001010000101000000" cont="0"/>
        <request index="2"  response="000000000000000000011010001101000000" foes="011110010111110100011010001101000000" cont="0"/>
        <request index="3"  response="011100010110001011011010011101000000" foes="011100010110001011111010011101000000" cont="0"/>
        <request index="4"  response="011110010100001010000101011101000000" foes="011110010100001010000101111101000000" cont="1"/>
        <request index="5"  response="010000010000001000000100000010000000" foes="010000010000001000000100000010000000" cont="1"/>
        <request index="6"  response="000100000100000000000000000000010000" foes="110100011100001100000110000000011111" cont="0"/>
        <request index="7"  response="000000000000000000000000000000000000" foes="010000010000001000000100000000100000" cont="0"/>
        <request index="8"  response="000000000000010000000000000000010000" foes="001111111000011100001110000000011110" cont="0"/>
        <request index="9"  response="000000000000010000000000000000010000" foes="001110000111111101011110000000011100" cont="0"/>
        <request index="10" response="000000000000000000000000000000010000" foes="001100000110000011111110000000011000" cont="0"/>
        <request index="11" response="001000000100000010000001000000010000" foes="001000000100000010000001000000010000" cont="1"/>
        <request index="12" response="000000000000000000000000000000010000" foes="001000000100000010000000100000010000" cont="0"/>
        <request index="13" response="000000000000000000000000011101000000" foes="111000011100001110000000011101001111" cont="0"/>
        <request index="14" response="000110000000000000000000011111010000" foes="011110010100001011000000011111110001" cont="0"/>
        <request index="15" response="000000000000010000000000011100000000" foes="000111111100011111000000011100001110" cont="0"/>
        <request index="16" response="000000000000010000000000011000000000" foes="000110000011111110000000011000001100" cont="0"/>
        <request index="17" response="000100000010000001000000010000001000" foes="000100000010000001000000010000001000" cont="1"/>
        <request index="18" response="000000000000000000001100011000000000" foes="000100000010000000101100011000001000" cont="0"/>
        <request index="19" response="000000000000000000011111010000000000" foes="001100000110000000011111110000011000" cont="0"/>
        <request index="20" response="000000001000000000011010001101000111" foes="111100011110000000011010001101000111" cont="0"/>
        <request index="21" response="000000000000000000011110001111000000" foes="011100010110000000011110001111111000" cont="0"/>
        <request index="22" response="000011001000000000011000001100000110" foes="000011111110000000011000001100000110" cont="1"/>
        <request index="23" response="000010000001000000010000001000000100" foes="000010000001000000010000001000000100" cont="1"/>
        <request index="24" response="000000000000000000010000001000000100" foes="000010000000100000010000001000000100" cont="0"/>
        <request index="25" response="000000000000011111010000011000000100" foes="000110000000011111110000011000001100" cont="0"/>
        <request index="26" response="000000000000011110001111011000010100" foes="001110000000011110001111111001011100" cont="0"/>
        <request index="27" response="000000000000010000001010000101000000" foes="111110000000010100001010000101000011" cont="0"/>
        <request index="28" response="000000000000011100001110000111010100" foes="011110000000011100001110000111111101" cont="0"/>
        <request index="29" response="000001000000010000001000000100000010" foes="000001000000010000001000000100000010" cont="1"/>
        <request index="30" response="000000000000010000001000000100000000" foes="000000100000010000001000000100000010" cont="0"/>