<?xml version="1.0" encoding="UTF-8"?>

<!-- generated on 2026-04-11 13:40:22.207189 by Eclipse SUMO randomTrips.py v1_26_0+0000-fa7df22d7f1
<configuration>
    <net-file value="C:\Users\santhosh\OneDrive\Desktop\trafiic pro\web_runs\20260411_134017_190285\area.net.xml"/>
    <output-trip-file value="C:\Users\santhosh\OneDrive\Desktop\trafiic pro\web_runs\20260411_134017_190285\area.trips.xml"/>
    <route-file value="C:\Users\santhosh\OneDrive\Desktop\trafiic pro\web_runs\20260411_134017_190285\area.rou.xml"/>
    <fringe-factor value="8"/>
    <remove-loops value="True"/>
    <end value="300.0"/>
    <period value="1.8"/>
</configuration>
-->

<routes xmlns:xsi="http://www.w3.org/2001/XMLSchema-instance" xsi:noNamespaceSchemaLocation="http://sumo.dlr.de/xsd/routes_file.xsd">
    <trip id="0" depart="0.00" from="1117411972" to="-106223901#0"/>
    <trip id="1" depart="1.80" from="106223901#0" to="-1117411973#0"/>
    <trip id="2" depart="3.60" from="1117411973#0" to="1182449834#0"/>
    <trip id="3" depart="5.40" from="1182449833" to="-106223901#0"/>
    <trip id="4" depart="7.20" from="106223901#1" to="-106223901#0"/>
    <trip id="5" depart="9.00" from="-1117411973#2" to="106223901#1"/>
    <trip id="6" depart="10.80" from="-106223901#1" to="-106223901#0"/>
    <trip id="7" depart="12.60" from="-1117411973#2" to="1117411973#1"/>
    <trip id="8" depart="14.40" from="1117411973#0" to="-106223901#0"/>
    <trip id="9" depart="16.20" from="1117411973#0" to="1182449834#1"/>
    <trip id="10" depart="18.00" from="106223901#0" to="-106223901#0"/>
    <trip id="11" depart="19.80" from="1182449835" to="-1117411973#0"/>
    <trip id="12" depart="21.60" from="-106223901#1" to="-106223901#0"/>
    <trip id="13" depart="23.40" from="1117411973#1" to="1117411973#1"/>
    <trip id="14" depart="25.20" from="1117411973#0" to="1182449834#1"/>
    <trip id="15" depart="27.00" from="1088063213#0" to="1347939838"/>
    <trip id="16" depart="28.80" from="1117411973#0" to="1117411973#2"/>
    <trip id="17" depart="30.60" from="1117411973#1" to="1117411972"/>
    <trip id="18" depart="32.40" from="1117411973#0" to="-106223901#0"/>
    <trip id="19" depart="34.20" from="106223901#0" to="-1117411973#0"/>
    <trip id="20" depart="36.00" from="-106223901#1" to="-1117411973#0"/>
    <trip id="21" depart="37.80" from="-106223901#1" to="-1117411973#0"/>
    <trip id="22" depart="39.60" from="1088063213#1" to="-1117411973#0"/>
    <trip id="23" depart="41.40" from="106223901#0" to="-106223901#0"/>
    <trip id="24" depart="43.20" from="106223901#0" to="1182449834#1-AddedOnRampEdge"/>
    <trip id="25" depart="45.00" from="1117411972" to="1117411973#1"/>
    <trip id="26" depart="46.80" from="-106223901#1" to="1182449834#1"/>
    <trip id="27" depart="48.60" from="-106223901#1" to="-1117411973#0"/>
    <trip id="28" depart="50.40" from="1088063213#0" to="1182449834#0"/>
    <trip id="29" depart="52.20" from="1117411973#1" to="1182449834#1"/>
    <trip id="30" depart="54.00" from="106223901#0" to="-106223901#0"/>
    <trip id="31" depart="55.80" from="106223901#0" to="-1117411973#0"/>
    <trip id="32" depart="57.60" from="-1117411973#2" to="1182449834#1-AddedOnRampEdge"/>
    <trip id="33" depart="59.40" from="1117411973#2" to="-1117411973#0"/>
    <trip id="34" depart="61.20" from="1117411972" to="-1117411973#0"/>
    <trip id="35" depart="63.00" from="106223901#0" to="-1117411973#0"/>
    <trip id="36" depart="64.80" from="1088063213#0" to="-1117411973#0"/>
    <trip id="37" depart="66.60" from="1088063213#0" to="1182449834#1"/>
    <trip id="38" depart="68.40" from="106223901#0" to="-106223901#0"/>
    <trip id="39" depart="70.20" from="-106223901#1" to="-106223901#0"/>
    <trip id="40" depart="72.00" from="-106223901#1" to="1117411973#2"/>
    <trip id="41" depart="73.80" from="1117411973#0" to="-1117411973#0"/>
    <trip id="42" depart="75.60" from="-106223901#1" to="-1117411973#0"/>
    <trip id="43" depart="77.40" from="1182449835" to="1182449834#1"/>
    <trip id="44" depart="79.20" from="-106223901#1" to="1182449834#1"/>
    <trip id="45" depart="81.00" from="106223901#0" to="1182449833"/>
    <trip id="46" depart="82.80" from="-106223901#1" to="-1117411973#0"/>
    <trip id="47" depart="84.60" from="1088063213#0" to="1182449835"/>
    <trip id="48" depart="86.40" from="1117411973#2" to="-1117411973#0"/>
    <trip id="49" depart="88.20" from="1088063213#0" to="-106223901#0"/>
    <trip id="50" depart="90.00" from="1182449834#0" to="1182449834#1"/>
    <trip id="51" depart="91.80" from="106223901#0" to="1182449833"/>
    <trip id="52" depart="93.60" from="1088063213#0" to="-106223901#0"/>
    <trip id="53" depart="95.40" from="-106223901#1" to="-1117411973#0"/>
    <trip id="54" depart="97.20" from="-106223901#1" to="1182449834#1-AddedOnRampEdge"/>
    <trip id="55" depart="99.00" from="1117411973#2" to="1182449834#1"/>
    <trip id="56" depart="100.80" from="106223901#0" to="-106223901#0"/>
    <trip id="57" depart="102.60" from="1117411973#2" to="1182449835"/>
    <trip id="58" depart="104.40" from="-106223901#1" to="-1117411973#2"/>
    <trip id="59" depart="106.20" from="-106223901#1" to="1182449834#1"/>
    <trip id="60" depart="108.00" from="1117411973#0" to="-106223901#0"/>
    <trip id="61" depart="109.80" from="1088063213#0" to="1088063213#1"/>
    <trip id="62" depart="111.60" from="106223901#0" to="1182449834#1"/>
    <trip id="63" depart="113.40" from="106223901#1" to="-106223901#0"/>
    <trip id="64" depart="115.20" from="1088063213#0" to="1182449834#1"/>
    <trip id="65" depart="117.00" from="-1117411973#1" to="-1117411973#0"/>
    <trip id="66" depart="118.80" from="1088063213#0" to="106223901#1"/>
    <trip id="67" depart="120.60" from="-106223901#1" to="-1117411973#0"/>
    <trip id="68" depart="122.40" from="106223901#0" to="1117411973#1"/>
    <trip id="69" depart="124.20" from="106223901#0" to="-106223901#0"/>
    <trip id="70" depart="126.00" from="-106223901#1" to="1117411973#2"/>
    <trip id="71" depart="127.80" from="106223901#0" to="1182449834#1"/>
    <trip id="72" depart="129.60" from="1117411973#1" to="-106223901#0"/>
    <trip id="73" depart="131.40" from="106223901#0" to="1182449834#0"/>
    <trip id="74" depart="133.20" from="-1117411973#2" to="-106223901#0"/>
    <trip id="75" depart="135.00" from="1088063213#0" to="1182449834#1"/>
    <trip id="76" depart="136.80" from="1117411973#0" to="-106223901#0"/>
    <trip id="77" depart="138.60" from="-106223901#1" to="-1117411973#0"/>
    <trip id="78" depart="140.40" from="106223901#1" to="-1117411973#1"/>
    <trip id="79" depart="142.20" from="1117411973#0" to="1182449834#0"/>
    <trip id="80" depart="144.00" from="106223901#0" to="-1117411973#0"/>
    <trip id="81" depart="145.80" from="1117411973#1" to="-1117411973#0"/>
    <trip id="82" depart="147.60" from="-1117411973#1" to="-1117411973#1"/>
    <trip id="83" depart="149.40" from="106223901#1" to="-1117411973#0"/>
    <trip id="84" depart="151.20" from="106223901#0" to="1182449834#1-AddedOnRampEdge"/>
    <trip id="85" depart="153.00" from="1088063213#0" to="1182449834#1"/>
    <trip id="86" depart="154.80" from="1088063213#0" to="-106223901#0"/>
    <trip id="87" depart="156.60" from="1347939838" to="1182449834#1"/>
    <trip id="88" depart="158.40" from="1182449835" to="1182449834#1-AddedOnRampEdge"/>
    <trip id="89" depart="160.20" from="1117411973#1" to="-106223901#0"/>
    <trip id="90" depart="162.00" from="1088063213#0" to="-106223901#0"/>
    <trip id="91" depart="163.80" from="106223901#0" to="-106223901#0"/>
    <trip id="92" depart="165.60" from="106223901#0" to="1347939838"/>
    <trip id="93" depart="167.40" from="106223901#0" to="1182449834#1"/>
    <trip id="94" depart="169.20" from="1088063213#0" to="-1117411973#0"/>
    <trip id="95" depart="171.00" from="1182449835" to="1347939838"/>
    <trip id="96" depart="172.80" from="1088063213#0" to="1182449834#1"/>
    <trip id="97" depart="174.60" from="-106223901#1" to="-1117411973#0"/>
    <trip id="98" depart="176.40" from="1182449835" to="1117411972"/>
    <trip id="99" depart="178.20" from="1088063213#0" to="1182449834#1"/>
    <trip id="100" depart="180.00" from="-106223901#1" to="1117411973#1"/>
    <trip id="101" depart="181.80" from="1088063213#0" to="1182449834#1"/>
    <trip id="102" depart="183.60" from="-106223901#1" to="1182449835"/>
    <trip id="103" depart="185.40" from="-106223901#1" to="-106223901#0"/>
    <trip id="104" depart="187.20" from="1088063213#0" to="1182449834#0"/>
    <trip id="105" depart="189.00" from="106223901#0" to="-106223901#0"/>
    <trip id="106" depart="190.80" from="1182449833" to="-1117411973#0"/>
    <trip id="107" depart="192.60" from="1088063213#0" to="1117411973#2"/>
    <trip id="108" depart="194.40" from="106223901#1" to="1117411973#1"/>
    <trip id="109" depart="196.20" from="1088063213#0" to="1182449834#1-AddedOnRampEdge"/>
    <trip id="110" depart="198.00" from="-1117411973#1" to="1182449834#1"/>
    <trip id="111" depart="199.80" from="106223901#0" to="-1117411973#0"/>
    <trip id="112" depart="201.60" from="1117411973#0" to="-1117411973#0"/>
    <trip id="113" depart="203.40" from="106223901#0" to="1182449834#1"/>
    <trip id="114" depart="205.20" from="-106223901#1" to="-1117411973#1"/>
    <trip id="115" depart="207.00" from="1347939838" to="1347939838"/>
    <trip id="116" depart="208.80" from="-106223901#1" to="-106223901#0"/>
    <trip id="117" depart="210.60" from="106223901#0" to="1182449834#1-AddedOnRampEdge"/>
    <trip id="118" depart="212.40" from="1117411973#2" to="1182449834#1"/>
    <trip id="119" depart="214.20" from="106223901#0" to="-106223901#0"/>
    <trip id="120" depart="216.00" from="1117411973#0" to="1182449834#1"/>
    <trip id="121" depart="217.80" from="1088063213#0" to="1347939838"/>
    <trip id="122" depart="219.60" from="1117411972" to="-106223901#0"/>
    <trip id="123" depart="221.40" from="1117411973#0" to="-1117411973#0"/>
    <trip id="124" depart="223.20" from="1117411973#0" to="1182449834#1-AddedOnRampEdge"/>
    <trip id="125" depart="225.00" from="-106223901#1" to="-106223901#0"/>
    <trip id="126" depart="226.80" from="106223901#0" to="1117411973#1"/>
    <trip id="127" depart="228.60" from="1117411973#0" to="-106223901#0"/>
    <trip id="128" depart="230.40" from="1088063213#1" to="-1117411973#0"/>
    <trip id="129" depart="232.20" from="1088063213#0" to="1182449834#1"/>
    <trip id="130" depart="234.00" from="1117411973#1" to="-106223901#0"/>
    <trip id="131" depart="235.80" from="106223901#1" to="-1117411973#0"/>
    <trip id="132" depart="237.60" from="-106223901#1" to="1182449834#1"/>
    <trip id="133" depart="239.40" from="1117411972" to="-1117411973#0"/>
    <trip id="134" depart="241.20" from="106223901#1" to="-106223901#0"/>
    <trip id="135" depart="243.00" from="-106223901#1" to="1182449834#1"/>
    <trip id="136" depart="244.80" from="1117411973#0" to="1117411972"/>
    <trip id="137" depart="246.60" from="-106223901#1" to="-106223901#0"/>
    <trip id="138" depart="248.40" from="106223901#0" to="1182449834#1"/>
    <trip id="139" depart="250.20" from="1117411973#0" to="1182449834#1"/>
    <trip id="140" depart="252.00" from="1182449833" to="-106223901#0"/>
    <trip id="141" depart="253.80" from="106223901#0" to="-106223901#0"/>
    <trip id="142" depart="255.60" from="1117411973#0" to="1182449834#1"/>
    <trip id="143" depart="257.40" from="106223901#0" to="1117411973#2"/>
    <trip id="144" depart="259.20" from="-106223901#1" to="1182449834#1-AddedOnRampEdge"/>
    <trip id="145" depart="261.00" from="1117411973#2" to="1347939838"/>
    <trip id="146" depart="262.80" from="1117411973#0" to="1182449834#1"/>
    <trip id="147" depart="264.60" from="-106223901#1" to="1182449834#1"/>
    <trip id="148" depart="266.40" from="106223901#0" to="1182449834#1-AddedOnRampEdge"/>
    <trip id="149" depart="268.20" from="1117411973#0" to="1182449834#1"/>
    <trip id="150" depart="270.00" from="1117411973#0" to="-1117411973#0"/>
    <trip id="151" depart="271.80" from="1117411973#0" to="-106223901#0"/>
    <trip id="152" depart="273.60" from="1117411973#2" to="1182449834#1"/>
    <trip id="153" depart="275.40" from="-1117411973#2" to="1182449834#1"/>
    <trip id="154" depart="277.20" from="1088063213#0" to="-1117411973#0"/>
    <trip id="155" depart="279.00" from="1117411973#0" to="-1117411973#0"/>
    <trip id="156" depart="280.80" from="-106223901#1" to="-106223901#0"/>
    <trip id="157" depart="282.60" from="106223901#0" to="1182449834#1"/>
    <trip id="158" depart="284.40" from="1182449835" to="-1117411973#0"/>
    <trip id="159" depart="286.20" from="1117411972" to="-1117411973#0"/>
    <trip id="160" depart="288.00" from="1182449835" to="-106223901#0"/>
    <trip id="161" depart="289.80" from="1182449835" to="-1117411973#0"/>
    <trip id="162" depart="291.60" from="-106223901#1" to="-1117411973#0"/>
    <trip id="163" depart="293.40" from="1117411973#0" to="-1117411973#0"/>
    <trip id="164" depart="295.20" from="1088063213#0" to="106223901#1"/>
    <trip id="165" depart="297.00" from="106223901#0" to="1117411972"/>
    <trip id="166" depart="298.80" from="106223901#0" to="1182449834#1"/>
</routes>
