<?xml version="1.0" encoding="UTF-8"?>

<!-- generated on 2026-04-11T13:40:21.007286+05:30 by Eclipse SUMO netconvert 1.26.0
<netconvertConfiguration xmlns:xsi="http://www.w3.org/2001/XMLSchema-instance" xsi:noNamespaceSchemaLocation="http://sumo.dlr.de/xsd/netconvertConfiguration.xsd">

    <input>
        <osm-files value="C:\Users\santhosh\OneDrive\Desktop\trafiic pro\web_runs\20260411_134017_190285\area.osm.xml"/>
    </input>

    <output>
        <output-file value="C:\Users\santhosh\OneDrive\Desktop\trafiic pro\web_runs\20260411_134017_190285\area.net.xml"/>
    </output>

    <projection>
        <proj.utm value="true"/>
    </projection>

    <processing>
        <geometry.remove value="true"/>
    </processing>

    <tls_building>
        <tls.guess value="true"/>
    </tls_building>

    <ramp_guessing>
        <ramps.guess value="true"/>
    </ramp_guessing>

    <junctions>
        <junctions.join value="true"/>
    </junctions>

</netconvertConfiguration>
-->

<net version="1.20" junctionCornerDetail="5" limitTurnSpeed="5.50" xmlns:xsi="http://www.w3.org/2001/XMLSchema-instance" xsi:noNamespaceSchemaLocation="http://sumo.dlr.de/xsd/net_file.xsd">

    <location netOffset="-297929.55,-1433296.58" convBoundary="0.00,0.00,124.30,1334.28" origBoundary="79.137155,12.958621,79.138284,12.970680" projParameter="+proj=utm +zone=44 +ellps=WGS84 +datum=WGS84 +units=m +no_defs"/>

    <type id="highway.footway" priority="1" numLanes="1" speed="2.78" allow="pedestrian" oneway="1" width="2.00"/>
    <type id="highway.primary" priority="12" numLanes="2" speed="27.78" disallow="tram rail_urban rail rail_electric rail_fast ship container cable_car subway aircraft wheelchair scooter drone" oneway="0"/>
    <type id="highway.primary_link" priority="7" numLanes="1" speed="22.22" disallow="tram rail_urban rail rail_electric rail_fast ship container cable_car subway aircraft wheelchair scooter drone" oneway="0"/>
    <type id="highway.trunk" priority="13" numLanes="2" speed="27.78" disallow="pedestrian bicycle tram rail_urban rail rail_electric rail_fast ship container cable_car subway aircraft wheelchair scooter drone" oneway="0"/>

    <edge id=":10219868258_0" function="internal">
        <lane id=":10219868258_0_0" index="0" disallow="pedestrian bicycle tram rail_urban rail rail_electric rail_fast ship container cable_car subway aircraft wheelchair scooter drone" speed="27.78" length="6.70" shape="20.79,840.90 20.69,834.70"/>
        <lane id=":10219868258_0_1" index="1" disallow="pedestrian bicycle tram rail_urban rail rail_electric rail_fast ship container cable_car subway aircraft wheelchair scooter drone" speed="27.78" length="6.70" shape="20.79,840.90 21.26,838.94 22.34,837.77 23.42,836.60 23.89,834.65"/>
    </edge>
    <edge id=":10219868258_2" function="internal">
        <lane id=":10219868258_2_0" index="0" disallow="pedestrian bicycle tram rail_urban rail rail_electric rail_fast ship container cable_car subway aircraft wheelchair scooter drone" speed="6.11" length="7.76" shape="20.79,840.90 21.16,839.56 22.33,838.58 24.30,837.95 27.06,837.67"/>
    </edge>
    <edge id=":10219868258_3" function="internal">
        <lane id=":10219868258_3_0" index="0" disallow="pedestrian bicycle tram rail_urban rail rail_electric rail_fast ship container cable_car subway aircraft wheelchair scooter drone" speed="3.65" length="4.67" shape="20.79,840.90 21.57,839.68 22.36,839.27 23.17,839.66 23.99,840.84"/>
    </edge>
    <edge id=":10219868260_0" function="internal">
        <lane id=":10219868260_0_0" index="0" disallow="tram rail_urban rail rail_electric rail_fast ship container cable_car subway aircraft wheelchair scooter drone" speed="3.65" length="4.67" shape="125.41,888.48 125.72,889.89 125.45,890.74 124.61,891.04 123.19,890.78"/>
    </edge>
    <edge id=":1040878874_0" function="internal">
        <lane id=":1040878874_0_0" index="0" disallow="tram rail_urban rail rail_electric rail_fast ship container cable_car subway aircraft wheelchair scooter drone" speed="27.78" length="15.69" shape="60.56,839.77 56.98,836.97 54.26,835.44 51.38,834.10 47.37,831.90"/>
        <lane id=":1040878874_0_1" index="1" disallow="tram rail_urban rail rail_electric rail_fast ship container cable_car subway aircraft wheelchair scooter drone" speed="27.78" length="15.69" shape="62.67,837.36 58.97,834.45 56.15,832.85 53.19,831.46 49.04,829.17"/>
    </edge>
    <edge id=":1040878874_2" function="internal">
        <lane id=":1040878874_2_0" index="0" disallow="tram rail_urban rail rail_electric rail_fast ship container cable_car subway aircraft wheelchair scooter drone" speed="3.65" length="1.44" shape="62.67,837.36 62.29,835.96"/>
    </edge>
    <edge id=":1040878874_8" function="internal">
        <lane id=":1040878874_8_0" index="0" disallow="tram rail_urban rail rail_electric rail_fast ship container cable_car subway aircraft wheelchair scooter drone" speed="3.65" length="3.23" shape="62.29,835.96 62.52,835.10 63.34,834.76 64.77,834.95"/>
    </edge>
    <edge id=":1040878874_3" function="internal">
        <lane id=":1040878874_3_0" index="0" disallow="tram rail_urban rail rail_electric rail_fast ship container cable_car subway aircraft wheelchair scooter drone" speed="27.78" length="16.77" shape="52.37,823.70 56.80,826.16 59.94,827.68 62.93,829.42 66.88,832.54"/>
        <lane id=":1040878874_3_1" index="1" disallow="tram rail_urban rail rail_electric rail_fast ship container cable_car subway aircraft wheelchair scooter drone" speed="27.78" length="16.77" shape="50.70,826.43 54.99,828.81 58.05,830.27 60.95,831.94 64.77,834.95"/>
    </edge>
    <edge id=":1040878874_5" function="internal">
        <lane id=":1040878874_5_0" index="0" disallow="tram rail_urban rail rail_electric rail_fast ship container cable_car subway aircraft wheelchair scooter drone" speed="3.65" length="1.44" shape="50.70,826.43 51.31,827.74"/>
    </edge>
    <edge id=":1040878874_9" function="internal">
        <lane id=":1040878874_9_0" index="0" disallow="tram rail_urban rail rail_electric rail_fast ship container cable_car subway aircraft wheelchair scooter drone" speed="3.65" length="3.23" shape="51.31,827.74 51.24,828.63 50.48,829.11 49.04,829.17"/>
    </edge>
    <edge id=":1040878874_6" function="internal">
        <lane id=":1040878874_6_0" index="0" disallow="tram rail_urban rail rail_electric rail_fast ship container cable_car subway aircraft wheelchair scooter drone" speed="5.48" length="10.74" shape="46.00,837.07 49.60,836.64 51.02,835.63 50.28,834.05 47.37,831.90"/>
    </edge>
    <edge id=":1040878874_7" function="internal">
        <lane id=":1040878874_7_0" index="0" disallow="tram rail_urban rail rail_electric rail_fast ship container cable_car subway aircraft wheelchair scooter drone" speed="15.18" length="20.05" shape="46.00,837.07 50.04,835.80 54.59,833.62 59.54,832.64 64.77,834.95"/>
    </edge>
    <edge id=":10980490844_0" function="internal">
        <lane id=":10980490844_0_0" index="0" disallow="pedestrian bicycle tram rail_urban rail rail_electric rail_fast ship container cable_car subway aircraft wheelchair scooter drone" speed="27.78" length="0.10" shape="1.72,10.67 1.72,10.67"/>
        <lane id=":10980490844_0_1" index="1" disallow="pedestrian bicycle tram rail_urban rail rail_electric rail_fast ship container cable_car subway aircraft wheelchair scooter drone" speed="27.78" length="0.10" shape="-1.48,10.71 -1.48,10.71"/>
    </edge>
    <edge id=":10980511627_0" function="internal">
        <lane id=":10980511627_0_0" index="0" disallow="pedestrian bicycle tram rail_urban rail rail_electric rail_fast ship container cable_car subway aircraft wheelchair scooter drone" speed="3.65" length="4.67" shape="6.68,1334.35 5.82,1335.52 5.01,1335.88 4.23,1335.44 3.48,1334.21"/>
    </edge>
    <edge id=":10980511628_0" function="internal">
        <lane id=":10980511628_0_0" index="0" disallow="pedestrian bicycle tram rail_urban rail rail_electric rail_fast ship container cable_car subway aircraft wheelchair scooter drone" speed="27.78" length="13.13" shape="27.50,1096.17 27.11,1099.56 26.11,1102.52 25.03,1105.48 24.41,1108.87"/>
    </edge>
    <edge id=":10980511628_1" function="internal">
        <lane id=":10980511628_1_0" index="0" disallow="pedestrian bicycle tram rail_urban rail rail_electric rail_fast ship container cable_car subway aircraft wheelchair scooter drone" speed="3.80" length="5.28" shape="27.50,1096.17 26.09,1096.98 25.08,1096.99 24.47,1096.18 24.26,1094.57"/>
    </edge>
    <edge id=":10980511628_2" function="internal">
        <lane id=":10980511628_2_0" index="0" disallow="pedestrian bicycle tram rail_urban rail rail_electric rail_fast ship container cable_car subway aircraft wheelchair scooter drone" speed="3.39" length="3.70" shape="20.58,1094.93 24.26,1094.57"/>
    </edge>
    <edge id=":10980511628_3" function="internal">
        <lane id=":10980511628_3_0" index="0" disallow="pedestrian bicycle tram rail_urban rail rail_electric rail_fast ship container cable_car subway aircraft wheelchair scooter drone" speed="27.78" length="14.04" shape="17.49,1097.12 18.75,1101.13 21.18,1103.68 23.50,1105.89 24.41,1108.87"/>
    </edge>
    <edge id=":10980511628_4" function="internal">
        <lane id=":10980511628_4_0" index="0" disallow="pedestrian bicycle tram rail_urban rail rail_electric rail_fast ship container cable_car subway aircraft wheelchair scooter drone" speed="27.78" length="14.49" shape="21.22,1108.69 21.83,1105.08 22.89,1101.63 23.88,1098.18 24.26,1094.57"/>
    </edge>
    <edge id=":10980511628_5" function="internal">
        <lane id=":10980511628_5_0" index="0" disallow="pedestrian bicycle tram rail_urban rail rail_electric rail_fast ship container cable_car subway aircraft wheelchair scooter drone" speed="3.65" length="1.08" shape="21.22,1108.69 21.86,1107.83"/>
    </edge>
    <edge id=":10980511628_6" function="internal">
        <lane id=":10980511628_6_0" index="0" disallow="pedestrian bicycle tram rail_urban rail rail_electric rail_fast ship container cable_car subway aircraft wheelchair scooter drone" speed="3.65" length="3.60" shape="21.86,1107.83 22.08,1107.54 22.91,1107.18 23.68,1107.63 24.41,1108.87"/>
    </edge>
    <edge id=":1182449834#1-AddedOnRampNode_0" function="internal">
        <lane id=":1182449834#1-AddedOnRampNode_0_0" index="0" disallow="pedestrian bicycle tram rail_urban rail rail_electric rail_fast ship container cable_car subway aircraft wheelchair scooter drone" speed="27.78" length="8.00" shape="16.90,687.84 16.80,679.84"/>
        <lane id=":1182449834#1-AddedOnRampNode_0_1" index="1" disallow="pedestrian bicycle tram rail_urban rail rail_electric rail_fast ship container cable_car subway aircraft wheelchair scooter drone" speed="27.78" length="8.00" shape="20.10,687.80 20.00,679.81"/>
    </edge>
    <edge id=":12468536269_0" function="internal">
        <lane id=":12468536269_0_0" index="0" disallow="tram rail_urban rail rail_electric rail_fast ship container cable_car subway aircraft wheelchair scooter drone" speed="27.78" length="13.73" shape="45.22,830.59 41.73,828.50 39.26,827.20 36.68,826.13 32.86,824.72"/>
        <lane id=":12468536269_0_1" index="1" disallow="tram rail_urban rail rail_electric rail_fast ship container cable_car subway aircraft wheelchair scooter drone" speed="27.78" length="13.73" shape="46.89,827.86 43.40,825.76 40.94,824.44 38.37,823.35 34.55,821.93"/>
    </edge>
    <edge id=":12468536269_2" function="internal">
        <lane id=":12468536269_2_0" index="0" disallow="tram rail_urban rail rail_electric rail_fast ship container cable_car subway aircraft wheelchair scooter drone" speed="25.00" length="2.52" shape="46.89,827.86 45.21,825.98"/>
    </edge>
    <edge id=":12468536269_3" function="internal">
        <lane id=":12468536269_3_0" index="0" disallow="tram rail_urban rail rail_electric rail_fast ship container cable_car subway aircraft wheelchair scooter drone" speed="3.65" length="1.44" shape="46.89,827.86 46.28,826.55"/>
    </edge>
    <edge id=":12468536269_8" function="internal">
        <lane id=":12468536269_8_0" index="0" disallow="tram rail_urban rail rail_electric rail_fast ship container cable_car subway aircraft wheelchair scooter drone" speed="25.00" length="14.67" shape="45.21,825.98 43.57,824.14 42.90,819.87 42.98,815.66 41.89,812.14"/>
    </edge>
    <edge id=":12468536269_9" function="internal">
        <lane id=":12468536269_9_0" index="0" disallow="tram rail_urban rail rail_electric rail_fast ship container cable_car subway aircraft wheelchair scooter drone" speed="3.65" length="3.23" shape="46.28,826.55 46.36,825.66 47.12,825.18 48.56,825.13"/>
    </edge>
    <edge id=":12468536269_4" function="internal">
        <lane id=":12468536269_4_0" index="0" disallow="tram rail_urban rail rail_electric rail_fast ship container cable_car subway aircraft wheelchair scooter drone" speed="5.70" length="11.87" shape="37.94,816.36 41.99,817.49 43.99,817.17 43.96,815.39 41.89,812.14"/>
    </edge>
    <edge id=":12468536269_5" function="internal">
        <lane id=":12468536269_5_0" index="0" disallow="tram rail_urban rail rail_electric rail_fast ship container cable_car subway aircraft wheelchair scooter drone" speed="27.78" length="13.73" shape="37.94,816.36 41.75,817.80 44.30,818.92 46.75,820.28 50.23,822.39"/>
        <lane id=":12468536269_5_1" index="1" disallow="tram rail_urban rail rail_electric rail_fast ship container cable_car subway aircraft wheelchair scooter drone" speed="27.78" length="13.73" shape="36.25,819.14 40.06,820.57 42.62,821.68 45.07,823.02 48.56,825.13"/>
    </edge>
    <edge id=":12468536269_7" function="internal">
        <lane id=":12468536269_7_0" index="0" disallow="tram rail_urban rail rail_electric rail_fast ship container cable_car subway aircraft wheelchair scooter drone" speed="3.67" length="1.33" shape="36.25,819.14 36.81,820.35"/>
    </edge>
    <edge id=":12468536269_10" function="internal">
        <lane id=":12468536269_10_0" index="0" disallow="tram rail_urban rail rail_electric rail_fast ship container cable_car subway aircraft wheelchair scooter drone" speed="3.67" length="3.43" shape="36.81,820.35 36.87,820.47 36.79,821.38 36.02,821.87 34.55,821.93"/>
    </edge>
    <edge id=":12468536272_0" function="internal">
        <lane id=":12468536272_0_0" index="0" disallow="pedestrian bicycle tram rail_urban rail rail_electric rail_fast ship container cable_car subway aircraft wheelchair scooter drone" speed="8.42" length="4.14" shape="23.17,787.59 22.48,786.59 22.14,785.82 22.01,784.97 21.96,783.75"/>
    </edge>
    <edge id=":12468536272_1" function="internal">
        <lane id=":12468536272_1_0" index="0" disallow="pedestrian bicycle tram rail_urban rail rail_electric rail_fast ship container cable_car subway aircraft wheelchair scooter drone" speed="27.78" length="6.64" shape="18.99,790.32 18.41,788.31 17.27,787.14 16.13,785.97 15.56,783.96"/>
        <lane id=":12468536272_1_1" index="1" disallow="pedestrian bicycle tram rail_urban rail rail_electric rail_fast ship container cable_car subway aircraft wheelchair scooter drone" speed="27.78" length="6.64" shape="22.11,788.28 21.56,786.81 20.43,786.07 19.31,785.33 18.76,783.85"/>
    </edge>
    <edge id=":cluster_1065084659_9969183281_0" function="internal">
        <lane id=":cluster_1065084659_9969183281_0_0" index="0" disallow="pedestrian bicycle tram rail_urban rail rail_electric rail_fast ship container cable_car subway aircraft wheelchair scooter drone" speed="27.78" length="22.31" shape="20.50,822.85 19.40,800.68"/>
        <lane id=":cluster_1065084659_9969183281_0_1" index="1" disallow="pedestrian bicycle tram rail_urban rail rail_electric rail_fast ship container cable_car subway aircraft wheelchair scooter drone" speed="27.78" length="22.31" shape="23.70,822.81 22.59,800.42"/>
    </edge>
    <edge id=":cluster_1065084659_9969183281_2" function="internal">
        <lane id=":cluster_1065084659_9969183281_2_0" index="0" disallow="pedestrian bicycle tram rail_urban rail rail_electric rail_fast ship container cable_car subway aircraft wheelchair scooter drone" speed="5.80" length="8.90" shape="23.70,822.81 23.57,819.14 23.34,816.47 22.99,814.79 22.53,814.10"/>
    </edge>
    <edge id=":cluster_1065084659_9969183281_3" function="internal">
        <lane id=":cluster_1065084659_9969183281_3_0" index="0" disallow="pedestrian bicycle tram rail_urban rail rail_electric rail_fast ship container cable_car subway aircraft wheelchair scooter drone" speed="7.00" length="11.64" shape="23.70,822.81 19.78,828.84 15.81,830.87"/>
    </edge>
    <edge id=":cluster_1065084659_9969183281_11" function="internal">
        <lane id=":cluster_1065084659_9969183281_11_0" index="0" disallow="pedestrian bicycle tram rail_urban rail rail_electric rail_fast ship container cable_car subway aircraft wheelchair scooter drone" speed="7.00" length="11.64" shape="15.81,830.87 11.80,828.92 7.75,822.99"/>
    </edge>
    <edge id=":cluster_1065084659_9969183281_4" function="internal">
        <lane id=":cluster_1065084659_9969183281_4_0" index="0" disallow="pedestrian bicycle tram rail_urban rail rail_electric rail_fast ship container cable_car subway aircraft wheelchair scooter drone" speed="6.63" length="12.02" shape="20.32,820.10 16.20,818.98 13.26,819.08 11.51,820.40 10.95,822.95"/>
    </edge>
    <edge id=":cluster_1065084659_9969183281_5" function="internal">
        <lane id=":cluster_1065084659_9969183281_5_0" index="0" disallow="pedestrian bicycle tram rail_urban rail rail_electric rail_fast ship container cable_car subway aircraft wheelchair scooter drone" speed="10.32" length="17.03" shape="21.43,817.10 22.19,816.31 22.64,813.27 22.78,807.97 22.59,800.42"/>
    </edge>
    <edge id=":cluster_1065084659_9969183281_6" function="internal">
        <lane id=":cluster_1065084659_9969183281_6_0" index="0" disallow="tram rail_urban rail rail_electric rail_fast ship container cable_car subway aircraft wheelchair scooter drone" speed="3.65" length="4.67" shape="21.43,817.10 20.58,815.94 20.48,815.05 21.13,814.43 22.53,814.10"/>
    </edge>
    <edge id=":cluster_1065084659_9969183281_7" function="internal">
        <lane id=":cluster_1065084659_9969183281_7_0" index="0" disallow="pedestrian bicycle tram rail_urban rail rail_electric rail_fast ship container cable_car subway aircraft wheelchair scooter drone" speed="10.13" length="16.88" shape="10.71,801.37 11.54,803.85 13.97,806.30 18.00,808.71 23.64,811.10"/>
    </edge>
    <edge id=":cluster_1065084659_9969183281_8" function="internal">
        <lane id=":cluster_1065084659_9969183281_8_0" index="0" disallow="pedestrian bicycle tram rail_urban rail rail_electric rail_fast ship container cable_car subway aircraft wheelchair scooter drone" speed="27.78" length="21.48" shape="10.71,801.37 10.95,822.95"/>
        <lane id=":cluster_1065084659_9969183281_8_1" index="1" disallow="pedestrian bicycle tram rail_urban rail rail_electric rail_fast ship container cable_car subway aircraft wheelchair scooter drone" speed="27.78" length="21.48" shape="7.52,801.62 7.75,822.99"/>
    </edge>
    <edge id=":cluster_1065084659_9969183281_10" function="internal">
        <lane id=":cluster_1065084659_9969183281_10_0" index="0" disallow="pedestrian bicycle tram rail_urban rail rail_electric rail_fast ship container cable_car subway aircraft wheelchair scooter drone" speed="6.86" length="11.04" shape="7.52,801.62 10.84,795.67 14.45,793.49"/>
    </edge>
    <edge id=":cluster_1065084659_9969183281_12" function="internal">
        <lane id=":cluster_1065084659_9969183281_12_0" index="0" disallow="pedestrian bicycle tram rail_urban rail rail_electric rail_fast ship container cable_car subway aircraft wheelchair scooter drone" speed="6.86" length="11.04" shape="14.45,793.49 18.37,795.07 22.59,800.42"/>
    </edge>

    <edge id="-106223901#0" from="10980511628" to="10980511627" priority="13" type="highway.trunk" shape="23.11,1103.58 20.92,1142.09 19.82,1161.25 6.79,1297.45 6.32,1307.65 5.08,1334.28">
        <lane id="-106223901#0_0" index="0" disallow="pedestrian bicycle tram rail_urban rail rail_electric rail_fast ship container cable_car subway aircraft wheelchair scooter drone" speed="27.78" length="226.23" shape="24.41,1108.87 22.52,1142.18 21.42,1161.37 8.39,1297.56 7.92,1307.72 6.68,1334.35"/>
        <param key="ref" value="NH75"/>
    </edge>
    <edge id="-106223901#1" from="10219868258" to="10980511628" priority="13" type="highway.trunk" shape="22.34,837.82 23.69,922.04 24.52,967.71 24.68,1023.86 24.64,1043.07 25.95,1098.24 23.11,1103.58">
        <lane id="-106223901#1_0" index="0" disallow="pedestrian bicycle tram rail_urban rail rail_electric rail_fast ship container cable_car subway aircraft wheelchair scooter drone" speed="27.78" length="255.36" shape="23.99,840.84 25.29,922.01 26.12,967.69 26.28,1023.86 26.24,1043.05 27.50,1096.17"/>
        <param key="ref" value="NH75"/>
    </edge>
    <edge id="-1117411973#0" from="1040878874" to="10219868260" priority="12" type="highway.primary" shape="64.12,836.50 118.04,883.58 124.30,889.63">
        <lane id="-1117411973#0_0" index="0" disallow="tram rail_urban rail rail_electric rail_fast ship container cable_car subway aircraft wheelchair scooter drone" speed="27.78" length="80.98" shape="66.88,832.54 121.29,880.04 127.64,886.18"/>
        <lane id="-1117411973#0_1" index="1" disallow="tram rail_urban rail rail_electric rail_fast ship container cable_car subway aircraft wheelchair scooter drone" speed="27.78" length="80.98" shape="64.77,834.95 119.12,882.40 125.41,888.48"/>
        <param key="ref" value="SH59"/>
    </edge>
    <edge id="-1117411973#1" from="12468536269" to="1040878874" priority="12" type="highway.primary">
        <lane id="-1117411973#1_0" index="0" disallow="tram rail_urban rail rail_electric rail_fast ship container cable_car subway aircraft wheelchair scooter drone" speed="27.78" length="2.51" shape="50.23,822.39 52.37,823.70"/>
        <lane id="-1117411973#1_1" index="1" disallow="tram rail_urban rail rail_electric rail_fast ship container cable_car subway aircraft wheelchair scooter drone" speed="27.78" length="2.51" shape="48.56,825.13 50.70,826.43"/>
        <param key="ref" value="SH59"/>
    </edge>
    <edge id="-1117411973#2" from="cluster_1065084659_9969183281" to="12468536269" priority="12" type="highway.primary" shape="21.98,815.60 41.88,822.92 51.18,828.60">
        <lane id="-1117411973#2_0" index="0" disallow="tram rail_urban rail rail_electric rail_fast ship container cable_car subway aircraft wheelchair scooter drone" speed="27.78" length="14.93" shape="23.64,811.10 37.94,816.36"/>
        <lane id="-1117411973#2_1" index="1" disallow="tram rail_urban rail rail_electric rail_fast ship container cable_car subway aircraft wheelchair scooter drone" speed="27.78" length="14.93" shape="22.53,814.10 36.25,819.14"/>
        <param key="ref" value="SH59"/>
    </edge>
    <edge id="106223901#0" from="10980511627" to="10980511628" priority="13" type="highway.trunk" shape="5.08,1334.28 6.32,1307.65 6.79,1297.45 19.82,1161.25 20.92,1142.09 23.11,1103.58">
        <lane id="106223901#0_0" index="0" disallow="pedestrian bicycle tram rail_urban rail rail_electric rail_fast ship container cable_car subway aircraft wheelchair scooter drone" speed="27.78" length="226.26" shape="3.48,1334.21 4.72,1307.58 5.19,1297.34 18.22,1161.13 19.32,1142.00 21.22,1108.69"/>
        <param key="ref" value="NH75"/>
    </edge>
    <edge id="106223901#1" from="10980511628" to="10219868258" priority="13" type="highway.trunk" shape="23.11,1103.58 25.95,1098.24 24.64,1043.07 24.68,1023.86 24.52,967.71 23.69,922.04 22.34,837.82">
        <lane id="106223901#1_0" index="0" disallow="pedestrian bicycle tram rail_urban rail rail_electric rail_fast ship container cable_car subway aircraft wheelchair scooter drone" speed="27.78" length="253.71" shape="24.26,1094.57 23.04,1043.09 23.08,1023.86 22.92,967.73 22.09,922.07 20.79,840.90"/>
        <param key="ref" value="NH75"/>
    </edge>
    <edge id="1088063213#0" from="9969183275" to="10980490844" priority="13" type="highway.trunk" spreadType="center">
        <lane id="1088063213#0_0" index="0" disallow="pedestrian bicycle tram rail_urban rail rail_electric rail_fast ship container cable_car subway aircraft wheelchair scooter drone" speed="27.78" length="10.69" shape="1.60,-0.02 1.72,10.67"/>
        <lane id="1088063213#0_1" index="1" disallow="pedestrian bicycle tram rail_urban rail rail_electric rail_fast ship container cable_car subway aircraft wheelchair scooter drone" speed="27.78" length="10.69" shape="-1.60,0.02 -1.48,10.71"/>
        <param key="ref" value="NH75"/>
    </edge>
    <edge id="1088063213#1" from="10980490844" to="cluster_1065084659_9969183281" priority="13" type="highway.trunk" spreadType="center" shape="0.12,10.69 1.73,153.84 4.11,364.27 5.31,458.05 5.97,518.04 8.56,751.40 9.27,815.34">
        <lane id="1088063213#1_0" index="0" disallow="pedestrian bicycle tram rail_urban rail rail_electric rail_fast ship container cable_car subway aircraft wheelchair scooter drone" speed="27.78" length="790.86" shape="1.72,10.67 3.33,153.82 5.71,364.25 6.91,458.03 7.57,518.02 10.16,751.38 10.71,801.37"/>
        <lane id="1088063213#1_1" index="1" disallow="pedestrian bicycle tram rail_urban rail rail_electric rail_fast ship container cable_car subway aircraft wheelchair scooter drone" speed="27.78" length="790.86" shape="-1.48,10.71 0.13,153.86 2.51,364.29 3.71,458.07 4.37,518.06 6.96,751.42 7.52,801.62"/>
        <param key="ref" value="NH75"/>
    </edge>
    <edge id="1117411972" from="10219868258" to="1040878874" priority="7" type="highway.primary_link" spreadType="center">
        <lane id="1117411972_0" index="0" disallow="tram rail_urban rail rail_electric rail_fast ship container cable_car subway aircraft wheelchair scooter drone" speed="22.22" length="18.95" shape="27.06,837.67 46.00,837.07"/>
    </edge>
    <edge id="1117411973#0" from="10219868260" to="1040878874" priority="12" type="highway.primary" shape="124.30,889.63 118.04,883.58 64.12,836.50">
        <lane id="1117411973#0_0" index="0" disallow="tram rail_urban rail rail_electric rail_fast ship container cable_car subway aircraft wheelchair scooter drone" speed="27.78" length="80.66" shape="120.96,893.08 114.79,887.12 60.56,839.77"/>
        <lane id="1117411973#0_1" index="1" disallow="tram rail_urban rail rail_electric rail_fast ship container cable_car subway aircraft wheelchair scooter drone" speed="27.78" length="80.66" shape="123.19,890.78 116.96,884.76 62.67,837.36"/>
        <param key="ref" value="SH59"/>
    </edge>
    <edge id="1117411973#1" from="1040878874" to="12468536269" priority="12" type="highway.primary">
        <lane id="1117411973#1_0" index="0" disallow="tram rail_urban rail rail_electric rail_fast ship container cable_car subway aircraft wheelchair scooter drone" speed="27.78" length="2.51" shape="47.37,831.90 45.22,830.59"/>
        <lane id="1117411973#1_1" index="1" disallow="tram rail_urban rail rail_electric rail_fast ship container cable_car subway aircraft wheelchair scooter drone" speed="27.78" length="2.51" shape="49.04,829.17 46.89,827.86"/>
        <param key="ref" value="SH59"/>
    </edge>
    <edge id="1117411973#2" from="12468536269" to="cluster_1065084659_9969183281" priority="12" type="highway.primary" shape="51.18,828.60 41.88,822.92 21.98,815.60">
        <lane id="1117411973#2_0" index="0" disallow="tram rail_urban rail rail_electric rail_fast ship container cable_car subway aircraft wheelchair scooter drone" speed="27.78" length="13.67" shape="32.86,824.72 20.32,820.10"/>
        <lane id="1117411973#2_1" index="1" disallow="tram rail_urban rail rail_electric rail_fast ship container cable_car subway aircraft wheelchair scooter drone" speed="27.78" length="13.67" shape="34.55,821.93 21.43,817.10"/>
        <param key="ref" value="SH59"/>
    </edge>
    <edge id="1182448051" from="10980511630" to="10980511634" priority="1" type="highway.footway" spreadType="center" shape="31.35,967.87 31.58,929.31 28.04,855.75">
        <lane id="1182448051_0" index="0" allow="pedestrian" speed="2.78" length="112.21" width="2.00" shape="31.35,967.87 31.58,929.31 28.04,855.75"/>
    </edge>
    <edge id="1182449833" from="cluster_1065084659_9969183281" to="10980511628" priority="13" type="highway.trunk" spreadType="center" shape="9.27,815.34 9.50,836.40 10.45,921.93 15.45,1023.52 17.97,1074.42 19.16,1098.54 23.11,1103.58">
        <lane id="1182449833_0" index="0" disallow="pedestrian bicycle tram rail_urban rail rail_electric rail_fast ship container cable_car subway aircraft wheelchair scooter drone" speed="27.78" length="273.27" shape="10.95,822.95 11.10,836.38 12.05,921.88 17.05,1023.44 19.57,1074.34 20.58,1094.93"/>
        <lane id="1182449833_1" index="1" disallow="pedestrian bicycle tram rail_urban rail rail_electric rail_fast ship container cable_car subway aircraft wheelchair scooter drone" speed="27.78" length="273.27" shape="7.75,822.99 7.90,836.42 8.85,921.98 13.85,1023.60 16.37,1074.50 17.49,1097.12"/>
        <param key="ref" value="NH75"/>
    </edge>
    <edge id="1182449834#0" from="cluster_1065084659_9969183281" to="12468536272" priority="13" type="highway.trunk" spreadType="center" shape="21.98,815.60 21.15,804.48 20.47,787.22 17.16,783.91">
        <lane id="1182449834#0_0" index="0" disallow="pedestrian bicycle tram rail_urban rail rail_electric rail_fast ship container cable_car subway aircraft wheelchair scooter drone" speed="27.78" length="11.26" shape="19.40,800.68 18.99,790.32"/>
        <lane id="1182449834#0_1" index="1" disallow="pedestrian bicycle tram rail_urban rail rail_electric rail_fast ship container cable_car subway aircraft wheelchair scooter drone" speed="27.78" length="11.26" shape="22.59,800.42 22.11,788.28"/>
        <param key="ref" value="NH75"/>
    </edge>