<?xml version="1.0" encoding="UTF-8"?>

<!-- generated on 2026-04-11 13:40:22.405570 by Eclipse SUMO randomTrips.py v1_26_0+0000-fa7df22d7f1
<configuration>
    <net-file value="C:\Users\santhosh\OneDrive\Desktop\trafiic pro\web_runs\20260411_134017_190285\area.net.xml"/>
    <output-trip-file value="C:\Users\santhosh\OneDrive\Desktop\trafiic pro\web_runs\20260411_134017_190285\area.trips.xml"/>
    <route-file value="C:\Users\santhosh\OneDrive\Desktop\trafiic pro\web_runs\20260411_134017_190285\area.rou.xml"/>
    <fringe-factor value="8"/>
    <remove-loops value="True"/>
    <end value="300.0"/>
    <period value="1.8"/>
</configuration>
-->

<!-- generated on 2026-04-11T13:40:22.335229+05:30 by Eclipse SUMO duarouter 1.26.0
<duarouterConfiguration xmlns:xsi="http://www.w3.org/2001/XMLSchema-instance" xsi:noNamespaceSchemaLocation="http://sumo.dlr.de/xsd/duarouterConfiguration.xsd">

    <input>
        <net-file value="C:\Users\santhosh\OneDrive\Desktop\trafiic pro\web_runs\20260411_134017_190285\area.net.xml"/>
        <route-files value="C:\Users\santhosh\OneDrive\Desktop\trafiic pro\web_runs\20260411_134017_190285\area.trips.xml"/>
    </input>

    <output>
        <output-file value="C:\Users\santhosh\OneDrive\Desktop\trafiic pro\web_runs\20260411_134017_190285\area.rou.xml"/>
        <alternatives-output value="NUL"/>
    </output>

    <processing>
        <remove-loops value="true"/>
    </processing>

    <time>
        <begin value="0.0"/>
        <end value="300.0"/>
    </time>

    <report>
        <no-warnings value="true"/>
        <ignore-errors value="true"/>
        <no-step-log value="true"/>
    </report>

</duarouterConfiguration>
-->

<routes xmlns:xsi="http://www.w3.org/2001/XMLSchema-instance" xsi:noNamespaceSchemaLocation="http://sumo.dlr.de/xsd/routes_file.xsd">
    <vehicle id="0" depart="0.00">
        <route edges="1117411972 1117411973#1 1117411973#2 1182449833 -106223901#0"/>
    </vehicle>
    <vehicle id="1" depart="1.80">
        <route edges="106223901#0 106223901#1 1117411972 -1117411973#0"/>
    </vehicle>
    <vehicle id="2" depart="3.60">
        <route edges="1117411973#0 1117411973#1 1117411973#2 1182449834#0"/>
    </vehicle>
    <vehicle id="3" depart="5.40">
        <route edges="1182449833 -106223901#0"/>
    </vehicle>
    <vehicle id="4" depart="7.20">
        <route edges="-106223901#1 -106223901#0"/>
    </vehicle>
    <vehicle id="5" depart="9.00">
        <route edges="1117411973#2 1182449833 106223901#1"/>
    </vehicle>
    <vehicle id="6" depart="10.80">
        <route edges="-106223901#1 -106223901#0"/>
    </vehicle>
    <vehicle id="7" depart="12.60">
        <route edges="-1117411973#2 -1117411973#1"/>
    </vehicle>
    <vehicle id="8" depart="14.40">
        <route edges="1117411973#0 1117411973#1 1117411973#2 1182449833 -106223901#0"/>
    </vehicle>
    <vehicle id="9" depart="16.20">
        <route edges="1117411973#0 1117411973#1 1117411973#2 1182449834#0 1182449834#1-AddedOnRampEdge 1182449834#1"/>
    </vehicle>
    <vehicle id="10" depart="18.00">
        <route edges="106223901#0 -106223901#0"/>
    </vehicle>
    <vehicle id="11" depart="19.80">
        <route edges="1182449835 -1117411973#2 -1117411973#1 -1117411973#0"/>
    </vehicle>
    <vehicle id="12" depart="21.60">
        <route edges="-106223901#1 -106223901#0"/>
    </vehicle>
    <vehicle id="13" depart="23.40">
        <route edges="1117411973#1"/>
    </vehicle>
    <vehicle id="14" depart="25.20">
        <route edges="1117411973#0 1117411973#1 1117411973#2 1182449834#0 1182449834#1-AddedOnRampEdge 1182449834#1"/>
    </vehicle>
    <vehicle id="15" depart="27.00">
        <route edges="1088063213#0 1088063213#1 -1117411973#2 1347939838"/>
    </vehicle>
    <vehicle id="16" depart="28.80">
        <route edges="1117411973#0 1117411973#1 1117411973#2"/>
    </vehicle>
    <vehicle id="17" depart="30.60">
        <route edges="1117411973#1 1117411973#2 1182449833 106223901#1 1117411972"/>
    </vehicle>
    <vehicle id="18" depart="32.40">
        <route edges="1117411973#0 1117411973#1 1117411973#2 1182449833 -106223901#0"/>
    </vehicle>
    <vehicle id="19" depart="34.20">
        <route edges="106223901#0 106223901#1 1117411972 -1117411973#0"/>
    </vehicle>
    <vehicle id="20" depart="36.00">
        <route edges="106223901#1 1117411972 -1117411973#0"/>
    </vehicle>
    <vehicle id="21" depart="37.80">
        <route edges="106223901#1 1117411972 -1117411973#0"/>
    </vehicle>
    <vehicle id="22" depart="39.60">
        <route edges="1088063213#1 -1117411973#2 -1117411973#1 -1117411973#0"/>
    </vehicle>
    <vehicle id="23" depart="41.40">
        <route edges="106223901#0 -106223901#0"/>
    </vehicle>
    <vehicle id="24" depart="43.20">
        <route edges="106223901#0 106223901#1 1182449835 1182449834#0 1182449834#1-AddedOnRampEdge"/>
    </vehicle>
    <vehicle id="25" depart="45.00">
        <route edges="1117411972 1117411973#1"/>
    </vehicle>
    <vehicle id="26" depart="46.80">
        <route edges="106223901#1 1182449835 1182449834#0 1182449834#1-AddedOnRampEdge 1182449834#1"/>
    </vehicle>
    <vehicle id="27" depart="48.60">
        <route edges="106223901#1 1117411972 -1117411973#0"/>
    </vehicle>
    <vehicle id="28" depart="50.40">
        <route edges="1088063213#0 1088063213#1 1182449834#0"/>
    </vehicle>
    <vehicle id="29" depart="52.20">
        <route edges="1117411973#1 1117411973#2 1182449834#0 1182449834#1-AddedOnRampEdge 1182449834#1"/>
    </vehicle>
    <vehicle id="30" depart="54.00">
        <route edges="106223901#0 -106223901#0"/>
    </vehicle>
    <vehicle id="31" depart="55.80">
        <route edges="106223901#0 106223901#1 1117411972 -1117411973#0"/>
    </vehicle>
    <vehicle id="32" depart="57.60">
        <route edges="-1117411973#2 1347939838 1182449834#1-AddedOnRampEdge"/>
    </vehicle>
    <vehicle id="33" depart="59.40">
        <route edges="-1117411973#2 -1117411973#1 -1117411973#0"/>
    </vehicle>
    <vehicle id="34" depart="61.20">
        <route edges="1117411972 -1117411973#0"/>
    </vehicle>
    <vehicle id="35" depart="63.00">
        <route edges="106223901#0 106223901#1 1117411972 -1117411973#0"/>
    </vehicle>
    <vehicle id="36" depart="64.80">
        <route edges="1088063213#0 1088063213#1 -1117411973#2 -1117411973#1 -1117411973#0"/>
    </vehicle>
    <vehicle id="37" depart="66.60">
        <route edges="1088063213#0 1088063213#1 -1117411973#2 1347939838 1182449834#1-AddedOnRampEdge 1182449834#1"/>
    </vehicle>
    <vehicle id="38" depart="68.40">
        <route edges="106223901#0 -106223901#0"/>
    </vehicle>
    <vehicle id="39" depart="70.20">
        <route edges="-106223901#1 -106223901#0"/>
    </vehicle>
    <vehicle id="40" depart="72.00">
        <route edges="106223901#1 1117411972 1117411973#1 1117411973#2"/>
    </vehicle>
    <vehicle id="41" depart="73.80">
        <route edges="1117411973#0 -1117411973#0"/>
    </vehicle>
    <vehicle id="42" depart="75.60">
        <route edges="106223901#1 1117411972 -1117411973#0"/>
    </vehicle>
    <vehicle id="43" depart="77.40">
        <route edges="1182449835 1182449834#0 1182449834#1-AddedOnRampEdge 1182449834#1"/>
    </vehicle>
    <vehicle id="44" depart="79.20">
        <route edges="106223901#1 1182449835 1182449834#0 1182449834#1-AddedOnRampEdge 1182449834#1"/>
    </vehicle>
    <vehicle id="45" depart="81.00">
        <route edges="106223901#0 106223901#1"/>
    </vehicle>
    <vehicle id="46" depart="82.80">
        <route edges="106223901#1 1117411972 -1117411973#0"/>
    </vehicle>
    <vehicle id="47" depart="84.60">
        <route edges="1088063213#0 1088063213#1 1182449833"/>
    </vehicle>
    <vehicle id="48" depart="86.40">
        <route edges="-1117411973#2 -1117411973#1 -1117411973#0"/>
    </vehicle>
    <vehicle id="49" depart="88.20">
        <route edges="1088063213#0 1088063213#1 1182449833 -106223901#0"/>
    </vehicle>
    <vehicle id="50" depart="90.00">
        <route edges="1182449834#0 1182449834#1-AddedOnRampEdge 1182449834#1"/>
    </vehicle>
    <vehicle id="51" depart="91.80">
        <route edges="106223901#0 106223901#1"/>
    </vehicle>
    <vehicle id="52" depart="93.60">
        <route edges="1088063213#0 1088063213#1 1182449833 -106223901#0"/>
    </vehicle>
    <vehicle id="53" depart="95.40">
        <route edges="106223901#1 1117411972 -1117411973#0"/>
    </vehicle>
    <vehicle id="54" depart="97.20">
        <route edges="106223901#1 1182449835 1182449834#0 1182449834#1-AddedOnRampEdge"/>
    </vehicle>
    <vehicle id="55" depart="99.00">
        <route edges="1117411973#2 1182449834#0 1182449834#1-AddedOnRampEdge 1182449834#1"/>
    </vehicle>
    <vehicle id="56" depart="100.80">
        <route edges="106223901#0 -106223901#0"/>
    </vehicle>
    <vehicle id="57" depart="102.60">
        <route edges="1117411973#2 1182449833"/>
    </vehicle>
    <vehicle id="58" depart="104.40">
        <route edges="106223901#1 1182449835 -1117411973#2"/>
    </vehicle>
    <vehicle id="59" depart="106.20">
        <route edges="106223901#1 1182449835 1182449834#0 1182449834#1-AddedOnRampEdge 1182449834#1"/>
    </vehicle>
    <vehicle id="60" depart="108.00">
        <route edges="1117411973#0 1117411973#1 1117411973#2 1182449833 -106223901#0"/>
    </vehicle>
    <vehicle id="61" depart="109.80">
        <route edges="1088063213#0 1088063213#1"/>
    </vehicle>
    <vehicle id="62" depart="111.60">
        <route edges="106223901#0 106223901#1 1182449835 1182449834#0 1182449834#1-AddedOnRampEdge 1182449834#1"/>
    </vehicle>
    <vehicle id="63" depart="113.40">
        <route edges="-106223901#1 -106223901#0"/>
    </vehicle>
    <vehicle id="64" depart="115.20">
        <route edges="1088063213#0 1088063213#1 -1117411973#2 1347939838 1182449834#1-AddedOnRampEdge 1182449834#1"/>
    </vehicle>
    <vehicle id="65" depart="117.00">
        <route edges="-1117411973#1 -1117411973#0"/>
    </vehicle>
    <vehicle id="66" depart="118.80">
        <route edges="1088063213#0 1088063213#1 1182449833 106223901#1"/>
    </vehicle>
    <vehicle id="67" depart="120.60">
        <route edges="106223901#1 1117411972 -1117411973#0"/>
    </vehicle>
    <vehicle id="68" depart="122.40">
        <route edges="106223901#0 106223901#1 1117411972 1117411973#1"/>
    </vehicle>
    <vehicle id="69" depart="124.20">
        <route edges="106223901#0 -106223901#0"/>
    </vehicle>
    <vehicle id="70" depart="126.00">
        <route edges="106223901#1 1117411972 1117411973#1 1117411973#2"/>
    </vehicle>
    <vehicle id="71" depart="127.80">
        <route edges="106223901#0 106223901#1 1182449835 1182449834#0 1182449834#1-AddedOnRampEdge 1182449834#1"/>
    </vehicle>
    <vehicle id="72" depart="129.60">
        <route edges="1117411973#1 1117411973#2 1182449833 -106223901#0"/>
    </vehicle>
    <vehicle id="73" depart="131.40">
        <route edges="106223901#0 106223901#1 1182449835 1182449834#0"/>
    </vehicle>
    <vehicle id="74" depart="133.20">
        <route edges="1117411973#2 1182449833 -106223901#0"/>
    </vehicle>
    <vehicle id="75" depart="135.00">
        <route edges="1088063213#0 1088063213#1 -1117411973#2 1347939838 1182449834#1-AddedOnRampEdge 1182449834#1"/>
    </vehicle>
    <vehicle id="76" depart="136.80">
        <route edges="1117411973#0 1117411973#1 1117411973#2 1182449833 -106223901#0"/>
    </vehicle>
    <vehicle id="77" depart="138.60">
        <route edges="106223901#1 1117411972 -1117411973#0"/>
    </vehicle>
    <vehicle id="78" depart="140.40">
        <route edges="106223901#1 1182449835 -1117411973#2 -1117411973#1"/>
    </vehicle>
    <vehicle id="79" depart="142.20">
        <route edges="1117411973#0 1117411973#1 1117411973#2 1182449834#0"/>
    </vehicle>
    <vehicle id="80" depart="144.00">
        <route edges="106223901#0 106223901#1 1117411972 -1117411973#0"/>
    </vehicle>
    <vehicle id="81" depart="145.80">
        <route edges="-1117411973#1 -1117411973#0"/>
    </vehicle>
    <vehicle id="82" depart="147.60">
        <route edges="-1117411973#1"/>
    </vehicle>
    <vehicle id="83" depart="149.40">
        <route edges="106223901#1 1117411972 -1117411973#0"/>
    </vehicle>
    <vehicle id="84" depart="151.20">
        <route edges="106223901#0 106223901#1 1182449835 1182449834#0 1182449834#1-AddedOnRampEdge"/>
    </vehicle>
    <vehicle id="85" depart="153.00">
        <route edges="1088063213#0 1088063213#1 -1117411973#2 1347939838 1182449834#1-AddedOnRampEdge 1182449834#1"/>
    </vehicle>
    <vehicle id="86" depart="154.80">
        <route edges="1088063213#0 1088063213#1 1182449833 -106223901#0"/>
    </vehicle>
    <vehicle id="87" depart="156.60">
        <route edges="1347939838 1182449834#1-AddedOnRampEdge 1182449834#1"/>
    </vehicle>
    <vehicle id="88" depart="158.40">
        <route edges="1182449835 1182449834#0 1182449834#1-AddedOnRampEdge"/>
    </vehicle>
    <vehicle id="89" depart="160.20">
        <route edges="1117411973#1 1117411973#2 1182449833 -106223901#0"/>
    </vehicle>
    <vehicle id="90" depart="162.00">
        <route edges="1088063213#0 1088063213#1 1182449833 -106223901#0"/>
    </vehicle>
    <vehicle id="91" depart="163.80">
        <route edges="106223901#0 -106223901#0"/>
    </vehicle>
    <vehicle id="92" depart="165.60">
        <route edges="106223901#0 106223901#1 1182449835 -1117411973#2 1347939838"/>
    </vehicle>
    <vehicle id="93" depart="167.40">
        <route edges="106223901#0 106223901#1 1182449835 1182449834#0 1182449834#1-AddedOnRampEdge 1182449834#1"/>
    </vehicle>
    <vehicle id="94" depart="169.20">
        <route edges="1088063213#0 1088063213#1 -1117411973#2 -1117411973#1 -1117411973#0"/>
    </vehicle>
    <vehicle id="95" depart="171.00">
        <route edges="1182449835 -1117411973#2 1347939838"/>
    </vehicle>
    <vehicle id="96" depart="172.80">
        <route edges="1088063213#0 1088063213#1 -1117411973#2 1347939838 1182449834#1-AddedOnRampEdge 1182449834#1"/>
    </vehicle>
    <vehicle id="97" depart="174.60">
        <route edges="106223901#1 1117411972 -1117411973#0"/>
    </vehicle>
    <vehicle id="98" depart="176.40">
        <route edges="106223901#1 1117411972"/>
    </vehicle>
    <vehicle id="99" depart="178.20">
        <route edges="1088063213#0 1088063213#1 -1117411973#2 1347939838 1182449834#1-AddedOnRampEdge 1182449834#1"/>
    </vehicle>
    <vehicle id="100" depart="180.00">
        <route edges="106223901#1 1117411972 1117411973#1"/>
    </vehicle>
    <vehicle id="101" depart="181.80">
        <route edges="1088063213#0 1088063213#1 -1117411973#2 1347939838 1182449834#1-AddedOnRampEdge 1182449834#1"/>
    </vehicle>
    <vehicle id="102" depart="183.60">
        <route edges="106223901#1 1182449835"/>
    </vehicle>
    <vehicle id="103" depart="185.40">
        <route edges="-106223901#1 -106223901#0"/>
    </vehicle>
    <vehicle id="104" depart="187.20">
        <route edges="1088063213#0 1088063213#1 1182449834#0"/>
    </vehicle>
    <vehicle id="105" depart="189.00">
        <route edges="106223901#0 -106223901#0"/>
    </vehicle>
    <vehicle id="106" depart="190.80">
        <route edges="1182449833 106223901#1 1117411972 -1117411973#0"/>
    </vehicle>
    <vehicle id="107" depart="192.60">
        <route edges="1088063213#0 1088063213#1 -1117411973#2"/>
    </vehicle>
    <vehicle id="108" depart="194.40">
        <route edges="106223901#1 1117411972 1117411973#1"/>
    </vehicle>
    <vehicle id="109" depart="196.20">
        <route edges="1088063213#0 1088063213#1 -1117411973#2 1347939838 1182449834#1-AddedOnRampEdge"/>
    </vehicle>
    <vehicle id="110" depart="198.00">
        <route edges="1117411973#1 1117411973#2 1182449834#0 1182449834#1-AddedOnRampEdge 1182449834#1"/>
    </vehicle>
    <vehicle id="111" depart="199.80">
        <route edges="106223901#0 106223901#1 1117411972 -1117411973#0"/>
    </vehicle>
    <vehicle id="112" depart="201.60">
        <route edges="1117411973#0 -1117411973#0"/>
    </vehicle>
    <vehicle id="113" depart="203.40">
        <route edges="106223901#0 106223901#1 1182449835 1182449834#0 1182449834#1-AddedOnRampEdge 1182449834#1"/>
    </vehicle>
    <vehicle id="114" depart="205.20">
        <route edges="106223901#1 1182449835 -1117411973#2 -1117411973#1"/>
    </vehicle>
    <vehicle id="115" depart="207.00">
        <route edges="1347939838"/>
    </vehicle>
    <vehicle id="116" depart="208.80">
        <route edges="-106223901#1 -106223901#0"/>
    </vehicle>
    <vehicle id="117" depart="210.60">
        <route edges="106223901#0 106223901#1 1182449835 1182449834#0 1182449834#1-AddedOnRampEdge"/>
    </vehicle>
    <vehicle id="118" depart="212.40">
        <route edges="1117411973#2 1182449834#0 1182449834#1-AddedOnRampEdge 1182449834#1"/>
    </vehicle>
    <vehicle id="119" depart="214.20">
        <route edges="106223901#0 -106223901#0"/>
    </vehicle>
    <vehicle id="120" depart="216.00">
        <route edges="1117411973#0 1117411973#1 1117411973#2 1182449834#0 1182449834#1-AddedOnRampEdge 1182449834#1"/>
    </vehicle>
    <vehicle id="121" depart="217.80">
        <route edges="1088063213#0 1088063213#1 -1117411973#2 1347939838"/>
    </vehicle>
    <vehicle id="122" depart="219.60">
        <route edges="1117411972 1117411973#1 1117411973#2 1182449833 -106223901#0"/>
    </vehicle>
    <vehicle id="123" depart="221.40">
        <route edges="1117411973#0 -1117411973#0"/>
    </vehicle>
    <vehicle id="124" depart="223.20">
        <route edges="1117411973#0 1117411973#1 1117411973#2 1182449834#0 1182449834#1-AddedOnRampEdge"/>
    </vehicle>
    <vehicle id="125" depart="225.00">
        <route edges="-106223901#1 -106223901#0"/>
    </vehicle>
    <vehicle id="126" depart="226.80">
        <route edges="106223901#0 106223901#1 1117411972 1117411973#1"/>
    </vehicle>
    <vehicle id="127" depart="228.60">
        <route edges="1117411973#0 1117411973#1 1117411973#2 1182449833 -106223901#0"/>
    </vehicle>
    <vehicle id="128" depart="230.40">
        <route edges="1088063213#1 -1117411973#2 -1117411973#1 -1117411973#0"/>
    </vehicle>
    <vehicle id="129" depart="232.20">
        <route edges="1088063213#0 1088063213#1 -1117411973#2 1347939838 1182449834#1-AddedOnRampEdge 1182449834#1"/>
    </vehicle>
    <vehicle id="130" depart="234.00">
        <route edges="1117411973#1 1117411973#2 1182449833 -106223901#0"/>
    </vehicle>
    <vehicle id="131" depart="235.80">
        <route edges="106223901#1 1117411972 -1117411973#0"/>
    </vehicle>
    <vehicle id="132" depart="237.60">
        <route edges="106223901#1 1182449835 1182449834#0 1182449834#1-AddedOnRampEdge 1182449834#1"/>
    </vehicle>
    <vehicle id="133" depart="239.40">
        <route edges="1117411972 -1117411973#0"/>
    </vehicle>
    <vehicle id="134" depart="241.20">
        <route edges="-106223901#1 -106223901#0"/>
    </vehicle>
    <vehicle id="135" depart="243.00">
        <route edges="106223901#1 1182449835 1182449834#0 1182449834#1-AddedOnRampEdge 1182449834#1"/>
    </vehicle>
    <vehicle id="136" depart="244.80">
        <route edges="1117411973#0 1117411973#1"/>
    </vehicle>
    <vehicle id="137" depart="246.60">
        <route edges="-106223901#1 -106223901#0"/>
    </vehicle>
    <vehicle id="138" depart="248.40">
        <route edges="106223901#0 106223901#1 1182449835 1182449834#0 1182449834#1-AddedOnRampEdge 1182449834#1"/>
    </vehicle>
    <vehicle id="139" depart="250.20">
        <route edges="1117411973#0 1117411973#1 1117411973#2 1182449834#0 1182449834#1-AddedOnRampEdge 1182449834#1"/>
    </vehicle>
    <vehicle id="140" depart="252.00">
        <route edges="1182449833 -106223901#0"/>
    </vehicle>
    <vehicle id="141" depart="253.80">
        <route edges="106223901#0 -106223901#0"/>
    </vehicle>
    <vehicle id="142" depart="255.60">
        <route edges="1117411973#0 1117411973#1 1117411973#2 1182449834#0 1182449834#1-AddedOnRampEdge 1182449834#1"/>
    </vehicle>
    <vehicle id="143" depart="257.40">
        <route edges="106223901#0 106223901#1 1117411972 1117411973#1 1117411973#2"/>
    </vehicle>
    <vehicle id="144" depart="259.20">
        <route edges="106223901#1 1182449835 1182449834#0 1182449834#1-AddedOnRampEdge"/>
    </vehicle>
    <vehicle id="145" depart="261.00">
        <route edges="-1117411973#2 1347939838"/>
    </vehicle>
    <vehicle id="146" depart="262.80">
        <route edges="1117411973#0 1117411973#1 1117411973#2 1182449834#0 1182449834#1-AddedOnRampEdge 1182449834#1"/>
    </vehicle>
    <vehicle id="147" depart="264.60">
        <route edges="106223901#1 1182449835 1182449834#0 1182449834#1-AddedOnRampEdge 1182449834#1"/>
    </vehicle>
    <vehicle id="148" depart="266.40">
        <route edges="106223901#0 106223901#1 1182449835 1182449834#0 1182449834#1-AddedOnRampEdge"/>
    </vehicle>
    <vehicle id="149" depart="268.20">
        <route edges="1117411973#0 1117411973#1 1117411973#2 1182449834#0 1182449834#1-AddedOnRampEdge 1182449834#1"/>
    </vehicle>
    <vehicle id="150" depart="270.00">
        <route edges="1117411973#0 -1117411973#0"/>
    </vehicle>
    <vehicle id="151" depart="271.80">
        <route edges="1117411973#0 1117411973#1 1117411973#2 1182449833 -106223901#0"/>
    </vehicle>
    <vehicle id="152" depart="273.60">
        <route edges="1117411973#2 1182449834#0 1182449834#1-AddedOnRampEdge 1182449834#1"/>
    </vehicle>
    <vehicle id="153" depart="275.40">
        <route edges="-1117411973#2 1347939838 1182449834#1-AddedOnRampEdge 1182449834#1"/>
    </vehicle>
    <vehicle id="154" depart="277.20">
        <route edges="1088063213#0 1088063213#1 -1117411973#2 -1117411973#1 -1117411973#0"/>
    </vehicle>
    <vehicle id="155" depart="279.00">
        <route edges="1117411973#0 -1117411973#0"/>
    </vehicle>
    <vehicle id="156" depart="280.80">
        <route edges="-106223901#1 -106223901#0"/>
    </vehicle>
    <vehicle id="157" depart="282.60">
        <route edges="106223901#0 106223901#1 1182449835 1182449834#0 1182449834#1-AddedOnRampEdge 1182449834#1"/>
    </vehicle>
    <vehicle id="158" depart="284.40">
        <route edges="1182449835 -1117411973#2 -1117411973#1 -1117411973#0"/>
    </vehicle>
    <vehicle id="159" depart="286.20">
        <route edges="1117411972 -1117411973#0"/>
    </vehicle>
    <vehicle id="160" depart="288.00">
        <route edges="1182449835 1182449833 -106223901#0"/>
    </vehicle>
    <vehicle id="161" depart="289.80">
        <route edges="1182449835 -1117411973#2 -1117411973#1 -1117411973#0"/>
    </vehicle>
    <vehicle id="162" depart="291.60">
        <route edges="106223901#1 1117411972 -1117411973#0"/>
    </vehicle>
    <vehicle id="163" depart="293.40">
        <route edges="1117411973#0 -1117411973#0"/>
    </vehicle>
    <vehicle id="164" depart="295.20">
        <route edges="1088063213#0 1088063213#1 1182449833 106223901#1"/>
    </vehicle>
    <vehicle id="165" depart="297.00">
        <route edges="106223901#0 106223901#1 1117411972"/>
    </vehicle>
    <vehicle id="166" depart="298.80">
        <route edges="106223901#0 106223901#1 1182449835 1182449834#0 1182449834#1-AddedOnRampEdge 1182449834#1"/>
    </vehicle>
</routes>
