<nodes>
    <node id="J1" x="220.0" y="230.0" type="traffic_light"/>
    <node id="J0" x="220.0" y="60.0" type="priority"/>
    <node id="J2" x="220.0" y="400.0" type="priority"/>
    <node id="J3" x="470.0" y="230.0" type="priority"/>
</nodes>