<edges>
    <edge id="E0_P0_P1" from="P0" to="P1" numLanes="1" speed="13.9" shape="55.0,445.0 705.0,445.0"/>
    <edge id="E0_P1_P0" from="P1" to="P0" numLanes="1" speed="13.9" shape="705.0,445.0 55.0,445.0"/>
    <edge id="E2_P2_P3" from="P2" to="P3" numLanes="1" speed="13.9" shape="55.0,55.0 705.0,55.0"/>
    <edge id="E2_P3_P2" from="P3" to="P2" numLanes="1" speed="13.9" shape="705.0,55.0 55.0,55.0"/>
    <edge id="E4_P0_P2" from="P0" to="P2" numLanes="1" speed="13.9" shape="55.0,445.0 55.0,55.0"/>
    <edge id="E4_P2_P0" from="P2" to="P0" numLanes="1" speed="13.9" shape="55.0,55.0 55.0,445.0"/>
    <edge id="E6_P1_P3" from="P1" to="P3" numLanes="1" speed="13.9" shape="705.0,445.0 705.0,55.0"/>
    <edge id="E6_P3_P1" from="P3" to="P1" numLanes="1" speed="13.9" shape="705.0,55.0 705.0,445.0"/>
</edges>