<?xml version="1.0" encoding="UTF-8"?>

<!-- generated on 2026-04-15T16:27:43.768363+05:30 by Eclipse SUMO netconvert 1.26.0
<netconvertConfiguration xmlns:xsi="http://www.w3.org/2001/XMLSchema-instance" xsi:noNamespaceSchemaLocation="http://sumo.dlr.de/xsd/netconvertConfiguration.xsd">

    <input>
        <node-files value="C:\Users\santhosh\OneDrive\Desktop\trafiic pro\reports\image_dashboard\scalability_assets\4x4\grid.nod.xml"/>
        <edge-files value="C:\Users\santhosh\OneDrive\Desktop\trafiic pro\reports\image_dashboard\scalability_assets\4x4\grid.edg.xml"/>
    </input>

    <output>
        <output-file value="C:\Users\santhosh\OneDrive\Desktop\trafiic pro\reports\image_dashboard\scalability_assets\4x4\grid.net.xml"/>
    </output>

    <building_defaults>
        <default.lanewidth value="1.5"/>
    </building_defaults>

    <junctions>
        <junctions.corner-detail value="0"/>
    </junctions>

</netconvertConfiguration>
-->

<net version="1.20" limitTurnSpeed="5.50" xmlns:xsi="http://www.w3.org/2001/XMLSchema-instance" xsi:noNamespaceSchemaLocation="http://sumo.dlr.de/xsd/net_file.xsd">

    <location netOffset="0.00,0.00" convBoundary="0.00,0.00,600.00,600.00" origBoundary="0.00,0.00,600.00,600.00" projParameter="!"/>

    <edge id=":J0_0_0" function="internal">
        <lane id=":J0_0_0_0" index="0" speed="6.13" length="8.47" width="1.50" shape="-2.25,3.00 -1.92,0.70 -0.94,-0.94 0.70,-1.92 3.00,-2.25"/>
        <lane id=":J0_0_0_1" index="1" speed="5.24" length="6.05" width="1.50" shape="-0.75,3.00 -0.52,1.36 0.19,0.19 1.36,-0.52 3.00,-0.75"/>
    </edge>
    <edge id=":J0_0_2" function="internal">
        <lane id=":J0_0_2_0" index="0" speed="2.67" length="1.21" width="1.50" shape="3.00,2.25 2.67,2.30 2.44,2.44 2.30,2.67 2.25,3.00"/>
        <lane id=":J0_0_2_1" index="1" speed="4.16" length="3.63" width="1.50" shape="3.00,0.75 2.02,0.89 1.31,1.31 0.89,2.02 0.75,3.00"/>
    </edge>
    <edge id=":J0_1_0" function="internal">
        <lane id=":J0_1_0_0" index="0" speed="5.85" length="7.66" width="1.50" shape="197.75,7.00 197.45,4.92 196.56,3.44 195.08,2.55 193.00,2.25"/>
        <lane id=":J0_1_0_1" index="1" speed="6.66" length="10.08" width="1.50" shape="199.25,7.00 198.86,4.27 197.69,2.31 195.73,1.14 193.00,0.75"/>
    </edge>
    <edge id=":J0_1_2" function="internal">
        <lane id=":J0_1_2_0" index="0" speed="7.39" length="12.50" width="1.50" shape="199.25,7.00 199.73,3.61 201.19,1.19 203.61,-0.27 207.00,-0.75"/>
    </edge>
    <edge id=":J0_1_3" function="internal">
        <lane id=":J0_1_3_0" index="0" speed="2.50" length="1.10" width="1.50" shape="199.25,7.00 199.62,6.44 200.00,6.25"/>
    </edge>
    <edge id=":J0_1_12" function="internal">
        <lane id=":J0_1_12_0" index="0" speed="2.50" length="1.10" width="1.50" shape="200.00,6.25 200.38,6.44 200.75,7.00"/>
    </edge>
    <edge id=":J0_1_4" function="internal">
        <lane id=":J0_1_4_0" index="0" speed="5.85" length="7.66" width="1.50" shape="207.00,2.25 204.92,2.55 203.44,3.44 202.55,4.92 202.25,7.00"/>
    </edge>
    <edge id=":J0_1_5" function="internal">
        <lane id=":J0_1_5_0" index="0" speed="13.90" length="14.00" width="1.50" shape="207.00,2.25 193.00,2.25"/>
        <lane id=":J0_1_5_1" index="1" speed="13.90" length="14.00" width="1.50" shape="207.00,0.75 193.00,0.75"/>
    </edge>
    <edge id=":J0_1_7" function="internal">
        <lane id=":J0_1_7_0" index="0" speed="2.50" length="1.87" width="1.50" shape="207.00,0.75 206.44,0.38 206.25,0.00 206.44,-0.38 206.73,-0.57"/>
    </edge>
    <edge id=":J0_1_13" function="internal">
        <lane id=":J0_1_13_0" index="0" speed="2.50" length="0.32" width="1.50" shape="206.73,-0.57 207.00,-0.75"/>
    </edge>
    <edge id=":J0_1_8" function="internal">
        <lane id=":J0_1_8_0" index="0" speed="13.90" length="14.00" width="1.50" shape="193.00,-2.25 207.00,-2.25"/>
        <lane id=":J0_1_8_1" index="1" speed="13.90" length="14.00" width="1.50" shape="193.00,-0.75 207.00,-0.75"/>
    </edge>
    <edge id=":J0_1_10" function="internal">
        <lane id=":J0_1_10_0" index="0" speed="7.39" length="5.30" width="1.50" shape="193.00,-0.75 196.39,-0.27 198.00,0.70"/>
    </edge>
    <edge id=":J0_1_11" function="internal">
        <lane id=":J0_1_11_0" index="0" speed="2.50" length="1.87" width="1.50" shape="193.00,-0.75 193.56,-0.38 193.75,0.00 193.56,0.38 193.27,0.57"/>
    </edge>
    <edge id=":J0_1_14" function="internal">
        <lane id=":J0_1_14_0" index="0" speed="7.39" length="7.19" width="1.50" shape="198.00,0.70 198.81,1.19 200.27,3.61 200.75,7.00"/>
    </edge>
    <edge id=":J0_1_15" function="internal">
        <lane id=":J0_1_15_0" index="0" speed="2.50" length="0.32" width="1.50" shape="193.27,0.57 193.00,0.75"/>
    </edge>
    <edge id=":J0_2_0" function="internal">
        <lane id=":J0_2_0_0" index="0" speed="5.85" length="7.66" width="1.50" shape="397.75,7.00 397.45,4.92 396.56,3.44 395.08,2.55 393.00,2.25"/>
        <lane id=":J0_2_0_1" index="1" speed="6.66" length="10.08" width="1.50" shape="399.25,7.00 398.86,4.27 397.69,2.31 395.73,1.14 393.00,0.75"/>
    </edge>
    <edge id=":J0_2_2" function="internal">
        <lane id=":J0_2_2_0" index="0" speed="7.39" length="12.50" width="1.50" shape="399.25,7.00 399.73,3.61 401.19,1.19 403.61,-0.27 407.00,-0.75"/>
    </edge>
    <edge id=":J0_2_3" function="internal">
        <lane id=":J0_2_3_0" index="0" speed="2.50" length="1.10" width="1.50" shape="399.25,7.00 399.62,6.44 400.00,6.25"/>
    </edge>
    <edge id=":J0_2_12" function="internal">
        <lane id=":J0_2_12_0" index="0" speed="2.50" length="1.10" width="1.50" shape="400.00,6.25 400.38,6.44 400.75,7.00"/>
    </edge>
    <edge id=":J0_2_4" function="internal">
        <lane id=":J0_2_4_0" index="0" speed="5.85" length="7.66" width="1.50" shape="407.00,2.25 404.92,2.55 403.44,3.44 402.55,4.92 402.25,7.00"/>
    </edge>
    <edge id=":J0_2_5" function="internal">
        <lane id=":J0_2_5_0" index="0" speed="13.90" length="14.00" width="1.50" shape="407.00,2.25 393.00,2.25"/>
        <lane id=":J0_2_5_1" index="1" speed="13.90" length="14.00" width="1.50" shape="407.00,0.75 393.00,0.75"/>
    </edge>
    <edge id=":J0_2_7" function="internal">
        <lane id=":J0_2_7_0" index="0" speed="2.50" length="1.87" width="1.50" shape="407.00,0.75 406.44,0.38 406.25,0.00 406.44,-0.38 406.73,-0.57"/>
    </edge>
    <edge id=":J0_2_13" function="internal">
        <lane id=":J0_2_13_0" index="0" speed="2.50" length="0.32" width="1.50" shape="406.73,-0.57 407.00,-0.75"/>
    </edge>
    <edge id=":J0_2_8" function="internal">
        <lane id=":J0_2_8_0" index="0" speed="13.90" length="14.00" width="1.50" shape="393.00,-2.25 407.00,-2.25"/>
        <lane id=":J0_2_8_1" index="1" speed="13.90" length="14.00" width="1.50" shape="393.00,-0.75 407.00,-0.75"/>
    </edge>
    <edge id=":J0_2_10" function="internal">
        <lane id=":J0_2_10_0" index="0" speed="7.39" length="5.30" width="1.50" shape="393.00,-0.75 396.39,-0.27 398.00,0.70"/>
    </edge>
    <edge id=":J0_2_11" function="internal">
        <lane id=":J0_2_11_0" index="0" speed="2.50" length="1.87" width="1.50" shape="393.00,-0.75 393.56,-0.38 393.75,0.00 393.56,0.38 393.27,0.57"/>
    </edge>
    <edge id=":J0_2_14" function="internal">
        <lane id=":J0_2_14_0" index="0" speed="7.39" length="7.19" width="1.50" shape="398.00,0.70 398.81,1.19 400.27,3.61 400.75,7.00"/>
    </edge>
    <edge id=":J0_2_15" function="internal">
        <lane id=":J0_2_15_0" index="0" speed="2.50" length="0.32" width="1.50" shape="393.27,0.57 393.00,0.75"/>
    </edge>
    <edge id=":J0_3_0" function="internal">
        <lane id=":J0_3_0_0" index="0" speed="2.67" length="1.21" width="1.50" shape="597.75,3.00 597.70,2.67 597.56,2.44 597.33,2.30 597.00,2.25"/>
        <lane id=":J0_3_0_1" index="1" speed="4.16" length="3.63" width="1.50" shape="599.25,3.00 599.11,2.02 598.69,1.31 597.98,0.89 597.00,0.75"/>
    </edge>
    <edge id=":J0_3_2" function="internal">
        <lane id=":J0_3_2_0" index="0" speed="6.13" length="8.47" width="1.50" shape="597.00,-2.25 599.30,-1.92 600.94,-0.94 601.92,0.70 602.25,3.00"/>
        <lane id=":J0_3_2_1" index="1" speed="5.24" length="6.05" width="1.50" shape="597.00,-0.75 598.64,-0.52 599.81,0.19 600.52,1.36 600.75,3.00"/>
    </edge>
    <edge id=":J1_0_0" function="internal">
        <lane id=":J1_0_0_0" index="0" speed="13.90" length="14.00" width="1.50" shape="-2.25,207.00 -2.25,193.00"/>
        <lane id=":J1_0_0_1" index="1" speed="13.90" length="14.00" width="1.50" shape="-0.75,207.00 -0.75,193.00"/>
    </edge>
    <edge id=":J1_0_2" function="internal">
        <lane id=":J1_0_2_0" index="0" speed="7.39" length="5.30" width="1.50" shape="-0.75,207.00 -0.27,203.61 0.70,202.00"/>
    </edge>
    <edge id=":J1_0_3" function="internal">
        <lane id=":J1_0_3_0" index="0" speed="2.50" length="1.87" width="1.50" shape="-0.75,207.00 -0.38,206.44 0.00,206.25 0.38,206.44 0.57,206.73"/>
    </edge>
    <edge id=":J1_0_12" function="internal">
        <lane id=":J1_0_12_0" index="0" speed="7.39" length="7.19" width="1.50" shape="0.70,202.00 1.19,201.19 3.61,199.73 7.00,199.25"/>
    </edge>
    <edge id=":J1_0_13" function="internal">
        <lane id=":J1_0_13_0" index="0" speed="2.50" length="0.32" width="1.50" shape="0.57,206.73 0.75,207.00"/>
    </edge>
    <edge id=":J1_0_4" function="internal">
        <lane id=":J1_0_4_0" index="0" speed="5.85" length="7.66" width="1.50" shape="7.00,202.25 4.92,202.55 3.44,203.44 2.55,204.92 2.25,207.00"/>
        <lane id=":J1_0_4_1" index="1" speed="6.66" length="10.08" width="1.50" shape="7.00,200.75 4.27,201.14 2.31,202.31 1.14,204.27 0.75,207.00"/>
    </edge>
    <edge id=":J1_0_6" function="internal">
        <lane id=":J1_0_6_0" index="0" speed="7.39" length="12.50" width="1.50" shape="7.00,200.75 3.61,200.27 1.19,198.81 -0.27,196.39 -0.75,193.00"/>
    </edge>
    <edge id=":J1_0_7" function="internal">
        <lane id=":J1_0_7_0" index="0" speed="2.50" length="1.10" width="1.50" shape="7.00,200.75 6.44,200.38 6.25,200.00"/>
    </edge>
    <edge id=":J1_0_14" function="internal">
        <lane id=":J1_0_14_0" index="0" speed="2.50" length="1.10" width="1.50" shape="6.25,200.00 6.44,199.62 7.00,199.25"/>
    </edge>
    <edge id=":J1_0_8" function="internal">
        <lane id=":J1_0_8_0" index="0" speed="5.85" length="7.66" width="1.50" shape="2.25,193.00 2.55,195.08 3.44,196.56 4.92,197.45 7.00,197.75"/>
    </edge>
    <edge id=":J1_0_9" function="internal">
        <lane id=":J1_0_9_0" index="0" speed="13.90" length="14.00" width="1.50" shape="2.25,193.00 2.25,207.00"/>
        <lane id=":J1_0_9_1" index="1" speed="13.90" length="14.00" width="1.50" shape="0.75,193.00 0.75,207.00"/>
    </edge>
    <edge id=":J1_0_11" function="internal">
        <lane id=":J1_0_11_0" index="0" speed="2.50" length="1.87" width="1.50" shape="0.75,193.00 0.38,193.56 0.00,193.75 -0.38,193.56 -0.57,193.27"/>
    </edge>
    <edge id=":J1_0_15" function="internal">
        <lane id=":J1_0_15_0" index="0" speed="2.50" length="0.32" width="1.50" shape="-0.57,193.27 -0.75,193.00"/>
    </edge>
    <edge id=":J1_1_0" function="internal">
        <lane id=":J1_1_0_0" index="0" speed="5.85" length="7.66" width="1.50" shape="197.75,207.00 197.45,204.92 196.56,203.44 195.08,202.55 193.00,202.25"/>
    </edge>
    <edge id=":J1_1_1" function="internal">
        <lane id=":J1_1_1_0" index="0" speed="13.90" length="14.00" width="1.50" shape="197.75,207.00 197.75,193.00"/>
        <lane id=":J1_1_1_1" index="1" speed="13.90" length="14.00" width="1.50" shape="199.25,207.00 199.25,193.00"/>
    </edge>
    <edge id=":J1_1_3" function="internal">
        <lane id=":J1_1_3_0" index="0" speed="7.39" length="5.30" width="1.50" shape="199.25,207.00 199.73,203.61 200.70,202.00"/>
    </edge>
    <edge id=":J1_1_4" function="internal">
        <lane id=":J1_1_4_0" index="0" speed="2.50" length="1.87" width="1.50" shape="199.25,207.00 199.62,206.44 200.00,206.25 200.38,206.44 200.57,206.73"/>
    </edge>
    <edge id=":J1_1_20" function="internal">
        <lane id=":J1_1_20_0" index="0" speed="7.39" length="7.19" width="1.50" shape="200.70,202.00 201.19,201.19 203.61,199.73 207.00,199.25"/>
    </edge>
    <edge id=":J1_1_21" function="internal">
        <lane id=":J1_1_21_0" index="0" speed="2.50" length="0.32" width="1.50" shape="200.57,206.73 200.75,207.00"/>
    </edge>
    <edge id=":J1_1_5" function="internal">
        <lane id=":J1_1_5_0" index="0" speed="5.85" length="7.66" width="1.50" shape="207.00,202.25 204.92,202.55 203.44,203.44 202.55,204.92 202.25,207.00"/>
    </edge>
    <edge id=":J1_1_6" function="internal">
        <lane id=":J1_1_6_0" index="0" speed="13.90" length="14.00" width="1.50" shape="207.00,202.25 193.00,202.25"/>
        <lane id=":J1_1_6_1" index="1" speed="13.90" length="14.00" width="1.50" shape="207.00,200.75 193.00,200.75"/>
    </edge>
    <edge id=":J1_1_8" function="internal">
        <lane id=":J1_1_8_0" index="0" speed="7.39" length="5.30" width="1.50" shape="207.00,200.75 203.61,200.27 202.00,199.30"/>
    </edge>
    <edge id=":J1_1_9" function="internal">
        <lane id=":J1_1_9_0" index="0" speed="2.50" length="1.87" width="1.50" shape="207.00,200.75 206.44,200.38 206.25,200.00 206.44,199.62 206.73,199.43"/>
    </edge>
    <edge id=":J1_1_22" function="internal">
        <lane id=":J1_1_22_0" index="0" speed="7.39" length="7.19" width="1.50" shape="202.00,199.30 201.19,198.81 199.73,196.39 199.25,193.00"/>
    </edge>
    <edge id=":J1_1_23" function="internal">
        <lane id=":J1_1_23_0" index="0" speed="2.50" length="0.32" width="1.50" shape="206.73,199.43 207.00,199.25"/>
    </edge>
    <edge id=":J1_1_10" function="internal">
        <lane id=":J1_1_10_0" index="0" speed="5.85" length="7.66" width="1.50" shape="202.25,193.00 202.55,195.08 203.44,196.56 204.92,197.45 207.00,197.75"/>
    </edge>
    <edge id=":J1_1_11" function="internal">
        <lane id=":J1_1_11_0" index="0" speed="13.90" length="14.00" width="1.50" shape="202.25,193.00 202.25,207.00"/>
        <lane id=":J1_1_11_1" index="1" speed="13.90" length="14.00" width="1.50" shape="200.75,193.00 200.75,207.00"/>
    </edge>
    <edge id=":J1_1_13" function="internal">
        <lane id=":J1_1_13_0" index="0" speed="7.39" length="5.30" width="1.50" shape="200.75,193.00 200.27,196.39 199.30,198.00"/>
    </edge>
    <edge id=":J1_1_14" function="internal">
        <lane id=":J1_1_14_0" index="0" speed="2.50" length="1.87" width="1.50" shape="200.75,193.00 200.38,193.56 200.00,193.75 199.62,193.56 199.43,193.27"/>
    </edge>
    <edge id=":J1_1_24" function="internal">
        <lane id=":J1_1_24_0" index="0" speed="7.39" length="7.19" width="1.50" shape="199.30,198.00 198.81,198.81 196.39,200.27 193.00,200.75"/>
    </edge>
    <edge id=":J1_1_25" function="internal">
        <lane id=":J1_1_25_0" index="0" speed="2.50" length="0.32" width="1.50" shape="199.43,193.27 199.25,193.00"/>
    </edge>
    <edge id=":J1_1_15" function="internal">
        <lane id=":J1_1_15_0" index="0" speed="5.85" length="7.66" width="1.50" shape="193.00,197.75 195.08,197.45 196.56,196.56 197.45,195.08 197.75,193.00"/>
    </edge>
    <edge id=":J1_1_16" function="internal">
        <lane id=":J1_1_16_0" index="0" speed="13.90" length="14.00" width="1.50" shape="193.00,197.75 207.00,197.75"/>
        <lane id=":J1_1_16_1" index="1" speed="13.90" length="14.00" width="1.50" shape="193.00,199.25 207.00,199.25"/>
    </edge>
    <edge id=":J1_1_18" function="internal">
        <lane id=":J1_1_18_0" index="0" speed="7.39" length="5.30" width="1.50" shape="193.00,199.25 196.39,199.73 198.00,200.70"/>
    </edge>
    <edge id=":J1_1_19" function="internal">
        <lane id=":J1_1_19_0" index="0" speed="2.50" length="1.87" width="1.50" shape="193.00,199.25 193.56,199.62 193.75,200.00 193.56,200.38 193.27,200.57"/>
    </edge>
    <edge id=":J1_1_26" function="internal">
        <lane id=":J1_1_26_0" index="0" speed="7.39" length="7.19" width="1.50" shape="198.00,200.70 198.81,201.19 200.27,203.61 200.75,207.00"/>
    </edge>
    <edge id=":J1_1_27" function="internal">
        <lane id=":J1_1_27_0" index="0" speed="2.50" length="0.32" width="1.50" shape="193.27,200.57 193.00,200.75"/>
    </edge>
    <edge id=":J1_2_0" function="internal">
        <lane id=":J1_2_0_0" index="0" speed="5.85" length="7.66" width="1.50" shape="397.75,207.00 397.45,204.92 396.56,203.44 395.08,202.55 393.00,202.25"/>
    </edge>
    <edge id=":J1_2_1" function="internal">
        <lane id=":J1_2_1_0" index="0" speed="13.90" length="14.00" width="1.50" shape="397.75,207.00 397.75,193.00"/>
        <lane id=":J1_2_1_1" index="1" speed="13.90" length="14.00" width="1.50" shape="399.25,207.00 399.25,193.00"/>
    </edge>
    <edge id=":J1_2_3" function="internal">
        <lane id=":J1_2_3_0" index="0" speed="7.39" length="5.30" width="1.50" shape="399.25,207.00 399.73,203.61 400.70,202.00"/>
    </edge>
    <edge id=":J1_2_4" function="internal">
        <lane id=":J1_2_4_0" index="0" speed="2.50" length="1.87" width="1.50" shape="399.25,207.00 399.62,206.44 400.00,206.25 400.38,206.44 400.57,206.73"/>
    </edge>
    <edge id=":J1_2_20" function="internal">
        <lane id=":J1_2_20_0" index="0" speed="7.39" length="7.19" width="1.50" shape="400.70,202.00 401.19,201.19 403.61,199.73 407.00,199.25"/>
    </edge>
    <edge id=":J1_2_21" function="internal">
        <lane id=":J1_2_21_0" index="0" speed="2.50" length="0.32" width="1.50" shape="400.57,206.73 400.75,207.00"/>
    </edge>
    <edge id=":J1_2_5" function="internal">
        <lane id=":J1_2_5_0" index="0" speed="5.85" length="7.66" width="1.50" shape="407.00,202.25 404.92,202.55 403.44,203.44 402.55,204.92 402.25,207.00"/>
    </edge>
    <edge id=":J1_2_6" function="internal">
        <lane id=":J1_2_6_0" index="0" speed="13.90" length="14.00" width="1.50" shape="407.00,202.25 393.00,202.25"/>
        <lane id=":J1_2_6_1" index="1" speed="13.90" length="14.00" width="1.50" shape="407.00,200.75 393.00,200.75"/>
    </edge>
    <edge id=":J1_2_8" function="internal">
        <lane id=":J1_2_8_0" index="0" speed="7.39" length="5.30" width="1.50" shape="407.00,200.75 403.61,200.27 402.00,199.30"/>
    </edge>
    <edge id=":J1_2_9" function="internal">
        <lane id=":J1_2_9_0" index="0" speed="2.50" length="1.87" width="1.50" shape="407.00,200.75 406.44,200.38 406.25,200.00 406.44,199.62 406.73,199.43"/>
    </edge>
    <edge id=":J1_2_22" function="internal">
        <lane id=":J1_2_22_0" index="0" speed="7.39" length="7.19" width="1.50" shape="402.00,199.30 401.19,198.81 399.73,196.39 399.25,193.00"/>
    </edge>
    <edge id=":J1_2_23" function="internal">
        <lane id=":J1_2_23_0" index="0" speed="2.50" length="0.32" width="1.50" shape="406.73,199.43 407.00,199.25"/>
    </edge>
    <edge id=":J1_2_10" function="internal">
        <lane id=":J1_2_10_0" index="0" speed="5.85" length="7.66" width="1.50" shape="402.25,193.00 402.55,195.08 403.44,196.56 404.92,197.45 407.00,197.75"/>
    </edge>
    <edge id=":J1_2_11" function="internal">
        <lane id=":J1_2_11_0" index="0" speed="13.90" length="14.00" width="1.50" shape="402.25,193.00 402.25,207.00"/>
        <lane id=":J1_2_11_1" index="1" speed="13.90" length="14.00" width="1.50" shape="400.75,193.00 400.75,207.00"/>
    </edge>
    <edge id=":J1_2_13" function="internal">
        <lane id=":J1_2_13_0" index="0" speed="7.39" length="5.30" width="1.50" shape="400.75,193.00 400.27,196.39 399.30,198.00"/>
    </edge>
    <edge id=":J1_2_14" function="internal">
        <lane id=":J1_2_14_0" index="0" speed="2.50" length="1.87" width="1.50" shape="400.75,193.00 400.38,193.56 400.00,193.75 399.62,193.56 399.43,193.27"/>
    </edge>
    <edge id=":J1_2_24" function="internal">
        <lane id=":J1_2_24_0" index="0" speed="7.39" length="7.19" width="1.50" shape="399.30,198.00 398.81,198.81 396.39,200.27 393.00,200.75"/>
    </edge>
    <edge id=":J1_2_25" function="internal">
        <lane id=":J1_2_25_0" index="0" speed="2.50" length="0.32" width="1.50" shape="399.43,193.27 399.25,193.00"/>
    </edge>
    <edge id=":J1_2_15" function="internal">
        <lane id=":J1_2_15_0" index="0" speed="5.85" length="7.66" width="1.50" shape="393.00,197.75 395.08,197.45 396.56,196.56 397.45,195.08 397.75,193.00"/>
    </edge>
    <edge id=":J1_2_16" function="internal">
        <lane id=":J1_2_16_0" index="0" speed="13.90" length="14.00" width="1.50" shape="393.00,197.75 407.00,197.75"/>
        <lane id=":J1_2_16_1" index="1" speed="13.90" length="14.00" width="1.50" shape="393.00,199.25 407.00,199.25"/>
    </edge>
    <edge id=":J1_2_18" function="internal">
        <lane id=":J1_2_18_0" index="0" speed="7.39" length="5.30" width="1.50" shape="393.00,199.25 396.39,199.73 398.00,200.70"/>
    </edge>
    <edge id=":J1_2_19" function="internal">
        <lane id=":J1_2_19_0" index="0" speed="2.50" length="1.87" width="1.50" shape="393.00,199.25 393.56,199.62 393.75,200.00 393.56,200.38 393.27,200.57"/>
    </edge>
    <edge id=":J1_2_26" function="internal">
        <lane id=":J1_2_26_0" index="0" speed="7.39" length="7.19" width="1.50" shape="398.00,200.70 398.81,201.19 400.27,203.61 400.75,207.00"/>
    </edge>
    <edge id=":J1_2_27" function="internal">
        <lane id=":J1_2_27_0" index="0" speed="2.50" length="0.32" width="1.50" shape="393.27,200.57 393.00,200.75"/>
    </edge>
    <edge id=":J1_3_0" function="internal">
        <lane id=":J1_3_0_0" index="0" speed="5.85" length="7.66" width="1.50" shape="597.75,207.00 597.45,204.92 596.56,203.44 595.08,202.55 593.00,202.25"/>
    </edge>
    <edge id=":J1_3_1" function="internal">
        <lane id=":J1_3_1_0" index="0" speed="13.90" length="14.00" width="1.50" shape="597.75,207.00 597.75,193.00"/>
        <lane id=":J1_3_1_1" index="1" speed="13.90" length="14.00" width="1.50" shape="599.25,207.00 599.25,193.00"/>
    </edge>
    <edge id=":J1_3_3" function="internal">
        <lane id=":J1_3_3_0" index="0" speed="2.50" length="1.87" width="1.50" shape="599.25,207.00 599.62,206.44 600.00,206.25 600.38,206.44 600.57,206.73"/>
    </edge>
    <edge id=":J1_3_12" function="internal">
        <lane id=":J1_3_12_0" index="0" speed="2.50" length="0.32" width="1.50" shape="600.57,206.73 600.75,207.00"/>
    </edge>
    <edge id=":J1_3_4" function="internal">
        <lane id=":J1_3_4_0" index="0" speed="13.90" length="14.00" width="1.50" shape="602.25,193.00 602.25,207.00"/>
        <lane id=":J1_3_4_1" index="1" speed="13.90" length="14.00" width="1.50" shape="600.75,193.00 600.75,207.00"/>
    </edge>
    <edge id=":J1_3_6" function="internal">
        <lane id=":J1_3_6_0" index="0" speed="7.39" length="5.30" width="1.50" shape="600.75,193.00 600.27,196.39 599.30,198.00"/>
    </edge>
    <edge id=":J1_3_7" function="internal">
        <lane id=":J1_3_7_0" index="0" speed="2.50" length="1.87" width="1.50" shape="600.75,193.00 600.38,193.56 600.00,193.75 599.62,193.56 599.43,193.27"/>
    </edge>
    <edge id=":J1_3_13" function="internal">
        <lane id=":J1_3_13_0" index="0" speed="7.39" length="7.19" width="1.50" shape="599.30,198.00 598.81,198.81 596.39,200.27 593.00,200.75"/>
    </edge>
    <edge id=":J1_3_14" function="internal">
        <lane id=":J1_3_14_0" index="0" speed="2.50" length="0.32" width="1.50" shape="599.43,193.27 599.25,193.00"/>
    </edge>
    <edge id=":J1_3_8" function="internal">
        <lane id=":J1_3_8_0" index="0" speed="5.85" length="7.66" width="1.50" shape="593.00,197.75 595.08,197.45 596.56,196.56 597.45,195.08 597.75,193.00"/>
        <lane id=":J1_3_8_1" index="1" speed="6.66" length="10.08" width="1.50" shape="593.00,199.25 595.73,198.86 597.69,197.69 598.86,195.73 599.25,193.00"/>
    </edge>
    <edge id=":J1_3_10" function="internal">
        <lane id=":J1_3_10_0" index="0" speed="7.39" length="12.50" width="1.50" shape="593.00,199.25 596.39,199.73 598.81,201.19 600.27,203.61 600.75,207.00"/>
    </edge>
    <edge id=":J1_3_11" function="internal">
        <lane id=":J1_3_11_0" index="0" speed="2.50" length="1.10" width="1.50" shape="593.00,199.25 593.56,199.62 593.75,200.00"/>
    </edge>
    <edge id=":J1_3_15" function="internal">
        <lane id=":J1_3_15_0" index="0" speed="2.50" length="1.10" width="1.50" shape="593.75,200.00 593.56,200.38 593.00,200.75"/>
    </edge>
    <edge id=":J2_0_0" function="internal">
        <lane id=":J2_0_0_0" index="0" speed="13.90" length="14.00" width="1.50" shape="-2.25,407.00 -2.25,393.00"/>
        <lane id=":J2_0_0_1" index="1" speed="13.90" length="14.00" width="1.50" shape="-0.75,407.00 -0.75,393.00"/>
    </edge>
    <edge id=":J2_0_2" function="internal">
        <lane id=":J2_0_2_0" index="0" speed="7.39" length="5.30" width="1.50" shape="-0.75,407.00 -0.27,403.61 0.70,402.00"/>
    </edge>
    <edge id=":J2_0_3" function="internal">
        <lane id=":J2_0_3_0" index="0" speed="2.50" length="1.87" width="1.50" shape="-0.75,407.00 -0.38,406.44 0.00,406.25 0.38,406.44 0.57,406.73"/>
    </edge>
    <edge id=":J2_0_12" function="internal">
        <lane id=":J2_0_12_0" index="0" speed="7.39" length="7.19" width="1.50" shape="0.70,402.00 1.19,401.19 3.61,399.73 7.00,399.25"/>
    </edge>
    <edge id=":J2_0_13" function="internal">
        <lane id=":J2_0_13_0" index="0" speed="2.50" length="0.32" width="1.50" shape="0.57,406.73 0.75,407.00"/>
    </edge>
    <edge id=":J2_0_4" function="internal">
        <lane id=":J2_0_4_0" index="0" speed="5.85" length="7.66" width="1.50" shape="7.00,402.25 4.92,402.55 3.44,403.44 2.55,404.92 2.25,407.00"/>
        <lane id=":J2_0_4_1" index="1" speed="6.66" length="10.08" width="1.50" shape="7.00,400.75 4.27,401.14 2.31,402.31 1.14,404.27 0.75,407.00"/>
    </edge>
    <edge id=":J2_0_6" function="internal">
        <lane id=":J2_0_6_0" index="0" speed="7.39" length="12.50" width="1.50" shape="7.00,400.75 3.61,400.27 1.19,398.81 -0.27,396.39 -0.75,393.00"/>
    </edge>
    <edge id=":J2_0_7" function="internal">
        <lane id=":J2_0_7_0" index="0" speed="2.50" length="1.10" width="1.50" shape="7.00,400.75 6.44,400.38 6.25,400.00"/>
    </edge>
    <edge id=":J2_0_14" function="internal">
        <lane id=":J2_0_14_0" index="0" speed="2.50" length="1.10" width="1.50" shape="6.25,400.00 6.44,399.62 7.00,399.25"/>
    </edge>
    <edge id=":J2_0_8" function="internal">
        <lane id=":J2_0_8_0" index="0" speed="5.85" length="7.66" width="1.50" shape="2.25,393.00 2.55,395.08 3.44,396.56 4.92,397.45 7.00,397.75"/>
    </edge>
    <edge id=":J2_0_9" function="internal">
        <lane id=":J2_0_9_0" index="0" speed="13.90" length="14.00" width="1.50" shape="2.25,393.00 2.25,407.00"/>
        <lane id=":J2_0_9_1" index="1" speed="13.90" length="14.00" width="1.50" shape="0.75,393.00 0.75,407.00"/>
    </edge>
    <edge id=":J2_0_11" function="internal">
        <lane id=":J2_0_11_0" index="0" speed="2.50" length="1.87" width="1.50" shape="0.75,393.00 0.38,393.56 0.00,393.75 -0.38,393.56 -0.57,393.27"/>
    </edge>
    <edge id=":J2_0_15" function="internal">
        <lane id=":J2_0_15_0" index="0" speed="2.50" length="0.32" width="1.50" shape="-0.57,393.27 -0.75,393.00"/>
    </edge>
    <edge id=":J2_1_0" function="internal">
        <lane id=":J2_1_0_0" index="0" speed="5.85" length="7.66" width="1.50" shape="197.75,407.00 197.45,404.92 196.56,403.44 195.08,402.55 193.00,402.25"/>
    </edge>
    <edge id=":J2_1_1" function="internal">
        <lane id=":J2_1_1_0" index="0" speed="13.90" length="14.00" width="1.50" shape="197.75,407.00 197.75,393.00"/>
        <lane id=":J2_1_1_1" index="1" speed="13.90" length="14.00" width="1.50" shape="199.25,407.00 199.25,393.00"/>
    </edge>
    <edge id=":J2_1_3" function="internal">
        <lane id=":J2_1_3_0" index="0" speed="7.39" length="5.30" width="1.50" shape="199.25,407.00 199.73,403.61 200.70,402.00"/>
    </edge>
    <edge id=":J2_1_4" function="internal">
        <lane id=":J2_1_4_0" index="0" speed="2.50" length="1.87" width="1.50" shape="199.25,407.00 199.62,406.44 200.00,406.25 200.38,406.44 200.57,406.73"/>
    </edge>
    <edge id=":J2_1_20" function="internal">
        <lane id=":J2_1_20_0" index="0" speed="7.39" length="7.19" width="1.50" shape="200.70,402.00 201.19,401.19 203.61,399.73 207.00,399.25"/>
    </edge>
    <edge id=":J2_1_21" function="internal">
        <lane id=":J2_1_21_0" index="0" speed="2.50" length="0.32" width="1.50" shape="200.57,406.73 200.75,407.00"/>
    </edge>
    <edge id=":J2_1_5" function="internal">
        <lane id=":J2_1_5_0" index="0" speed="5.85" length="7.66" width="1.50" shape="207.00,402.25 204.92,402.55 203.44,403.44 202.55,404.92 202.25,407.00"/>
    </edge>
    <edge id=":J2_1_6" function="internal">
        <lane id=":J2_1_6_0" index="0" speed="13.90" length="14.00" width="1.50" shape="207.00,402.25 193.00,402.25"/>
        <lane id=":J2_1_6_1" index="1" speed="13.90" length="14.00" width="1.50" shape="207.00,400.75 193.00,400.75"/>
    </edge>
    <edge id=":J2_1_8" function="internal">
        <lane id=":J2_1_8_0" index="0" speed="7.39" length="5.30" width="1.50" shape="207.00,400.75 203.61,400.27 202.00,399.30"/>
    </edge>
    <edge id=":J2_1_9" function="internal">
        <lane id=":J2_1_9_0" index="0" speed="2.50" length="1.87" width="1.50" shape="207.00,400.75 206.44,400.38 206.25,400.00 206.44,399.62 206.73,399.43"/>
    </edge>
    <edge id=":J2_1_22" function="internal">
        <lane id=":J2_1_22_0" index="0" speed="7.39" length="7.19" width="1.50" shape="202.00,399.30 201.19,398.81 199.73,396.39 199.25,393.00"/>
    </edge>
    <edge id=":J2_1_23" function="internal">
        <lane id=":J2_1_23_0" index="0" speed="2.50" length="0.32" width="1.50" shape="206.73,399.43 207.00,399.25"/>
    </edge>
    <edge id=":J2_1_10" function="internal">