<routes>
    <vType id="passenger" accel="2.6" decel="4.5" sigma="0.5" length="5" maxSpeed="13.9"/>
    <vType id="emergency" accel="3.0" decel="5.0" sigma="0.2" length="5" maxSpeed="16.0" color="1,0,0"/>
    <route id="r0" edges="J0_0_to_J0_1 J0_1_to_J0_2 J0_2_to_J0_3"/>
    <route id="r1" edges="J0_3_to_J0_2 J0_2_to_J0_1 J0_1_to_J0_0"/>
    <route id="r2" edges="J1_0_to_J1_1 J1_1_to_J1_2 J1_2_to_J1_3"/>
    <route id="r3" edges="J1_3_to_J1_2 J1_2_to_J1_1 J1_1_to_J1_0"/>
    <route id="r4" edges="J2_0_to_J2_1 J2_1_to_J2_2 J2_2_to_J2_3"/>
    <route id="r5" edges="J2_3_to_J2_2 J2_2_to_J2_1 J2_1_to_J2_0"/>
    <route id="r6" edges="J3_0_to_J3_1 J3_1_to_J3_2 J3_2_to_J3_3"/>
    <route id="r7" edges="J3_3_to_J3_2 J3_2_to_J3_1 J3_1_to_J3_0"/>
    <route id="r8" edges="J0_0_to_J1_0 J1_0_to_J2_0 J2_0_to_J3_0"/>
    <route id="r9" edges="J3_0_to_J2_0 J2_0_to_J1_0 J1_0_to_J0_0"/>
    <route id="r10" edges="J0_1_to_J1_1 J1_1_to_J2_1 J2_1_to_J3_1"/>
    <route id="r11" edges="J3_1_to_J2_1 J2_1_to_J1_1 J1_1_to_J0_1"/>
    <route id="r12" edges="J0_2_to_J1_2 J1_2_to_J2_2 J2_2_to_J3_2"/>
    <route id="r13" edges="J3_2_to_J2_2 J2_2_to_J1_2 J1_2_to_J0_2"/>
    <route id="r14" edges="J0_3_to_J1_3 J1_3_to_J2_3 J2_3_to_J3_3"/>
    <route id="r15" edges="J3_3_to_J2_3 J2_3_to_J1_3 J1_3_to_J0_3"/>
    <vehicle id="veh0" type="passenger" route="r14" depart="0.0"/>
    <vehicle id="veh1" type="passenger" route="r14" depart="1.09"/>
    <vehicle id="veh2" type="passenger" route="r6" depart="2.17"/>
    <vehicle id="veh3" type="passenger" route="r15" depart="3.26"/>
    <vehicle id="veh4" type="passenger" route="r5" depart="4.35"/>
    <vehicle id="veh5" type="passenger" route="r9" depart="5.43"/>
    <vehicle id="veh6" type="passenger" route="r1" depart="6.52"/>
    <vehicle id="veh7" type="passenger" route="r12" depart="7.61"/>
    <vehicle id="veh8" type="passenger" route="r5" depart="8.7"/>
    <vehicle id="veh9" type="passenger" route="r2" depart="9.78"/>
    <vehicle id="veh10" type="passenger" route="r6" depart="10.87"/>
    <vehicle id="veh11" type="passenger" route="r0" depart="11.96"/>
    <vehicle id="veh12" type="passenger" route="r10" depart="13.04"/>
    <vehicle id="veh13" type="passenger" route="r6" depart="14.13"/>
    <vehicle id="veh14" type="passenger" route="r9" depart="15.22"/>
    <vehicle id="veh15" type="passenger" route="r2" depart="16.3"/>
    <vehicle id="veh16" type="passenger" route="r8" depart="17.39"/>
    <vehicle id="veh17" type="passenger" route="r2" depart="18.48"/>
    <vehicle id="veh18" type="passenger" route="r10" depart="19.57"/>
    <vehicle id="veh19" type="passenger" route="r9" depart="20.65"/>
    <vehicle id="veh20" type="passenger" route="r3" depart="21.74"/>
    <vehicle id="veh21" type="passenger" route="r9" depart="22.83"/>
    <vehicle id="veh22" type="passenger" route="r0" depart="23.91"/>
    <vehicle id="veh23" type="passenger" route="r0" depart="25.0"/>
    <vehicle id="veh24" type="passenger" route="r1" depart="26.09"/>
    <vehicle id="veh25" type="passenger" route="r12" depart="27.17"/>
    <vehicle id="veh26" type="passenger" route="r6" depart="28.26"/>
    <vehicle id="veh27" type="passenger" route="r8" depart="29.35"/>
    <vehicle id="veh28" type="passenger" route="r9" depart="30.43"/>
    <vehicle id="veh29" type="passenger" route="r13" depart="31.52"/>
    <vehicle id="veh30" type="passenger" route="r3" depart="32.61"/>
    <vehicle id="veh31" type="emergency" route="r3" depart="33.7"/>
    <vehicle id="veh32" type="passenger" route="r14" depart="34.78"/>
    <vehicle id="veh33" type="passenger" route="r5" depart="35.87"/>
    <vehicle id="veh34" type="passenger" route="r6" depart="36.96"/>
    <vehicle id="veh35" type="passenger" route="r6" depart="38.04"/>
    <vehicle id="veh36" type="passenger" route="r4" depart="39.13"/>
    <vehicle id="veh37" type="passenger" route="r12" depart="40.22"/>
    <vehicle id="veh38" type="passenger" route="r13" depart="41.3"/>
    <vehicle id="veh39" type="passenger" route="r0" depart="42.39"/>
    <vehicle id="veh40" type="passenger" route="r9" depart="43.48"/>
    <vehicle id="veh41" type="passenger" route="r0" depart="44.57"/>
    <vehicle id="veh42" type="passenger" route="r12" depart="45.65"/>
    <vehicle id="veh43" type="passenger" route="r3" depart="46.74"/>
    <vehicle id="veh44" type="passenger" route="r4" depart="47.83"/>
    <vehicle id="veh45" type="emergency" route="r8" depart="48.91"/>
    <vehicle id="veh46" type="passenger" route="r10" depart="50.0"/>
    <vehicle id="veh47" type="passenger" route="r12" depart="51.09"/>
    <vehicle id="veh48" type="passenger" route="r2" depart="52.17"/>
    <vehicle id="veh49" type="emergency" route="r7" depart="53.26"/>
    <vehicle id="veh50" type="passenger" route="r11" depart="54.35"/>
    <vehicle id="veh51" type="passenger" route="r14" depart="55.43"/>
    <vehicle id="veh52" type="passenger" route="r15" depart="56.52"/>
    <vehicle id="veh53" type="passenger" route="r4" depart="57.61"/>
    <vehicle id="veh54" type="passenger" route="r5" depart="58.7"/>
    <vehicle id="veh55" type="passenger" route="r9" depart="59.78"/>
    <vehicle id="veh56" type="passenger" route="r7" depart="60.87"/>
    <vehicle id="veh57" type="passenger" route="r5" depart="61.96"/>
    <vehicle id="veh58" type="passenger" route="r6" depart="63.04"/>
    <vehicle id="veh59" type="passenger" route="r12" depart="64.13"/>
    <vehicle id="veh60" type="passenger" route="r2" depart="65.22"/>
    <vehicle id="veh61" type="passenger" route="r3" depart="66.3"/>
    <vehicle id="veh62" type="passenger" route="r8" depart="67.39"/>
    <vehicle id="veh63" type="passenger" route="r12" depart="68.48"/>
    <vehicle id="veh64" type="passenger" route="r15" depart="69.57"/>
    <vehicle id="veh65" type="passenger" route="r5" depart="70.65"/>
    <vehicle id="veh66" type="passenger" route="r2" depart="71.74"/>
    <vehicle id="veh67" type="passenger" route="r15" depart="72.83"/>
    <vehicle id="veh68" type="passenger" route="r2" depart="73.91"/>
    <vehicle id="veh69" type="passenger" route="r6" depart="75.0"/>
    <vehicle id="veh70" type="passenger" route="r2" depart="76.09"/>
    <vehicle id="veh71" type="passenger" route="r14" depart="77.17"/>
    <vehicle id="veh72" type="passenger" route="r1" depart="78.26"/>
    <vehicle id="veh73" type="passenger" route="r11" depart="79.35"/>
    <vehicle id="veh74" type="passenger" route="r4" depart="80.43"/>
    <vehicle id="veh75" type="passenger" route="r4" depart="81.52"/>
    <vehicle id="veh76" type="passenger" route="r10" depart="82.61"/>
    <vehicle id="veh77" type="passenger" route="r4" depart="83.7"/>
    <vehicle id="veh78" type="passenger" route="r0" depart="84.78"/>
    <vehicle id="veh79" type="passenger" route="r11" depart="85.87"/>
    <vehicle id="veh80" type="passenger" route="r1" depart="86.96"/>
    <vehicle id="veh81" type="passenger" route="r2" depart="88.04"/>
    <vehicle id="veh82" type="passenger" route="r9" depart="89.13"/>
    <vehicle id="veh83" type="passenger" route="r2" depart="90.22"/>
    <vehicle id="veh84" type="passenger" route="r11" depart="91.3"/>
    <vehicle id="veh85" type="passenger" route="r4" depart="92.39"/>
    <vehicle id="veh86" type="passenger" route="r10" depart="93.48"/>
    <vehicle id="veh87" type="passenger" route="r15" depart="94.57"/>
    <vehicle id="veh88" type="passenger" route="r13" depart="95.65"/>
    <vehicle id="veh89" type="passenger" route="r0" depart="96.74"/>
    <vehicle id="veh90" type="passenger" route="r0" depart="97.83"/>
    <vehicle id="veh91" type="passenger" route="r12" depart="98.91"/>
    <vehicle id="veh92" type="passenger" route="r0" depart="100.0"/>
    <vehicle id="veh93" type="passenger" route="r2" depart="101.09"/>
    <vehicle id="veh94" type="passenger" route="r3" depart="102.17"/>
    <vehicle id="veh95" type="passenger" route="r13" depart="103.26"/>
    <vehicle id="veh96" type="passenger" route="r12" depart="104.35"/>
    <vehicle id="veh97" type="passenger" route="r14" depart="105.43"/>
    <vehicle id="veh98" type="passenger" route="r2" depart="106.52"/>
    <vehicle id="veh99" type="passenger" route="r0" depart="107.61"/>
    <vehicle id="veh100" type="passenger" route="r2" depart="108.7"/>
    <vehicle id="veh101" type="passenger" route="r7" depart="109.78"/>
    <vehicle id="veh102" type="passenger" route="r3" depart="110.87"/>
    <vehicle id="veh103" type="passenger" route="r15" depart="111.96"/>
    <vehicle id="veh104" type="passenger" route="r0" depart="113.04"/>
    <vehicle id="veh105" type="passenger" route="r4" depart="114.13"/>
    <vehicle id="veh106" type="passenger" route="r6" depart="115.22"/>
    <vehicle id="veh107" type="passenger" route="r10" depart="116.3"/>
    <vehicle id="veh108" type="passenger" route="r14" depart="117.39"/>
    <vehicle id="veh109" type="passenger" route="r7" depart="118.48"/>
    <vehicle id="veh110" type="passenger" route="r8" depart="119.57"/>
    <vehicle id="veh111" type="passenger" route="r13" depart="120.65"/>
    <vehicle id="veh112" type="passenger" route="r6" depart="121.74"/>
    <vehicle id="veh113" type="passenger" route="r12" depart="122.83"/>
    <vehicle id="veh114" type="passenger" route="r10" depart="123.91"/>
    <vehicle id="veh115" type="passenger" route="r4" depart="125.0"/>
    <vehicle id="veh116" type="passenger" route="r1" depart="126.09"/>
    <vehicle id="veh117" type="passenger" route="r8" depart="127.17"/>
    <vehicle id="veh118" type="passenger" route="r3" depart="128.26"/>
    <vehicle id="veh119" type="passenger" route="r8" depart="129.35"/>
    <vehicle id="veh120" type="passenger" route="r13" depart="130.43"/>
    <vehicle id="veh121" type="passenger" route="r15" depart="131.52"/>
    <vehicle id="veh122" type="passenger" route="r14" depart="132.61"/>
    <vehicle id="veh123" type="passenger" route="r1" depart="133.7"/>
    <vehicle id="veh124" type="passenger" route="r1" depart="134.78"/>
    <vehicle id="veh125" type="passenger" route="r8" depart="135.87"/>
    <vehicle id="veh126" type="passenger" route="r9" depart="136.96"/>
    <vehicle id="veh127" type="passenger" route="r0" depart="138.04"/>
    <vehicle id="veh128" type="passenger" route="r12" depart="139.13"/>
    <vehicle id="veh129" type="passenger" route="r0" depart="140.22"/>
    <vehicle id="veh130" type="passenger" route="r8" depart="141.3"/>
    <vehicle id="veh131" type="passenger" route="r4" depart="142.39"/>
    <vehicle id="veh132" type="passenger" route="r3" depart="143.48"/>
    <vehicle id="veh133" type="passenger" route="r11" depart="144.57"/>
    <vehicle id="veh134" type="passenger" route="r6" depart="145.65"/>
    <vehicle id="veh135" type="passenger" route="r15" depart="146.74"/>
    <vehicle id="veh136" type="passenger" route="r0" depart="147.83"/>
    <vehicle id="veh137" type="passenger" route="r1" depart="148.91"/>
</routes>