<?xml version="1.0" encoding="UTF-8"?>

<!-- generated on 2026-04-15T14:59:20.334117+05:30 by Eclipse SUMO netconvert 1.26.0
<netconvertConfiguration xmlns:xsi="http://www.w3.org/2001/XMLSchema-instance" xsi:noNamespaceSchemaLocation="http://sumo.dlr.de/xsd/netconvertConfiguration.xsd">

    <input>
        <node-files value="C:\Users\santhosh\OneDrive\Desktop\trafiic pro\generated_image_demo\image_interchange.nod.xml"/>
        <edge-files value="C:\Users\santhosh\OneDrive\Desktop\trafiic pro\generated_image_demo\image_interchange.edg.xml"/>
    </input>

    <output>
        <output-file value="C:\Users\santhosh\OneDrive\Desktop\trafiic pro\generated_image_demo\image_interchange.net.xml"/>
    </output>

    <building_defaults>
        <default.lanewidth value="1.5"/>
    </building_defaults>

    <junctions>
        <junctions.corner-detail value="0"/>
    </junctions>

</netconvertConfiguration>
-->

<net version="1.20" limitTurnSpeed="5.50" xmlns:xsi="http://www.w3.org/2001/XMLSchema-instance" xsi:noNamespaceSchemaLocation="http://sumo.dlr.de/xsd/net_file.xsd">

    <location netOffset="-80.00,-120.00" convBoundary="0.00,0.00,1240.00,1060.00" origBoundary="80.00,120.00,1320.00,1180.00" projParameter="!"/>

    <edge id=":EL_0" function="internal">
        <lane id=":EL_0_0" index="0" speed="2.50" length="2.19" width="1.50" shape="1240.00,399.25 1240.56,399.62 1240.75,400.00 1240.56,400.38 1240.00,400.75"/>
    </edge>
    <edge id=":EM_0" function="internal">
        <lane id=":EM_0_0" index="0" speed="2.50" length="2.19" width="1.50" shape="1240.00,639.25 1240.56,639.62 1240.75,640.00 1240.56,640.38 1240.00,640.75"/>
    </edge>
    <edge id=":EU_0" function="internal">
        <lane id=":EU_0_0" index="0" speed="2.50" length="2.19" width="1.50" shape="1240.00,879.25 1240.56,879.62 1240.75,880.00 1240.56,880.38 1240.00,880.75"/>
    </edge>
    <edge id=":J0_0" function="internal">
        <lane id=":J0_0_0" index="0" speed="15.00" length="14.00" width="1.50" shape="307.00,882.25 293.00,882.25"/>
        <lane id=":J0_0_1" index="1" speed="15.00" length="14.00" width="1.50" shape="307.00,880.75 293.00,880.75"/>
    </edge>
    <edge id=":J0_2" function="internal">
        <lane id=":J0_2_0" index="0" speed="7.39" length="5.30" width="1.50" shape="307.00,880.75 303.61,880.27 302.00,879.30"/>
    </edge>
    <edge id=":J0_3" function="internal">
        <lane id=":J0_3_0" index="0" speed="2.50" length="1.87" width="1.50" shape="307.00,880.75 306.44,880.38 306.25,880.00 306.44,879.62 306.73,879.43"/>
    </edge>
    <edge id=":J0_11" function="internal">
        <lane id=":J0_11_0" index="0" speed="7.39" length="7.19" width="1.50" shape="302.00,879.30 301.19,878.81 299.73,876.39 299.25,873.00"/>
    </edge>
    <edge id=":J0_12" function="internal">
        <lane id=":J0_12_0" index="0" speed="2.50" length="0.32" width="1.50" shape="306.73,879.43 307.00,879.25"/>
    </edge>
    <edge id=":J0_4" function="internal">
        <lane id=":J0_4_0" index="0" speed="5.85" length="7.66" width="1.50" shape="302.25,873.00 302.55,875.08 303.44,876.56 304.92,877.45 307.00,877.75"/>
    </edge>
    <edge id=":J0_5" function="internal">
        <lane id=":J0_5_0" index="0" speed="7.39" length="12.50" width="1.50" shape="300.75,873.00 300.27,876.39 298.81,878.81 296.39,880.27 293.00,880.75"/>
    </edge>
    <edge id=":J0_6" function="internal">
        <lane id=":J0_6_0" index="0" speed="2.50" length="2.19" width="1.50" shape="300.75,873.00 300.38,873.56 300.00,873.75 299.62,873.56 299.25,873.00"/>
    </edge>
    <edge id=":J0_7" function="internal">
        <lane id=":J0_7_0" index="0" speed="5.85" length="7.66" width="1.50" shape="293.00,877.75 295.08,877.45 296.56,876.56 297.45,875.08 297.75,873.00"/>
    </edge>
    <edge id=":J0_8" function="internal">
        <lane id=":J0_8_0" index="0" speed="15.00" length="14.00" width="1.50" shape="293.00,877.75 307.00,877.75"/>
        <lane id=":J0_8_1" index="1" speed="15.00" length="14.00" width="1.50" shape="293.00,879.25 307.00,879.25"/>
    </edge>
    <edge id=":J0_10" function="internal">
        <lane id=":J0_10_0" index="0" speed="2.50" length="1.87" width="1.50" shape="293.00,879.25 293.56,879.62 293.75,880.00 293.56,880.38 293.27,880.57"/>
    </edge>
    <edge id=":J0_13" function="internal">
        <lane id=":J0_13_0" index="0" speed="2.50" length="0.32" width="1.50" shape="293.27,880.57 293.00,880.75"/>
    </edge>
    <edge id=":J1_0" function="internal">
        <lane id=":J1_0_0" index="0" speed="5.85" length="7.66" width="1.50" shape="616.25,887.00 615.95,884.92 615.06,883.44 613.58,882.55 611.50,882.25"/>
    </edge>
    <edge id=":J1_1" function="internal">
        <lane id=":J1_1_0" index="0" speed="18.00" length="14.00" width="1.50" shape="616.25,887.00 616.25,873.00"/>
        <lane id=":J1_1_1" index="1" speed="18.00" length="14.00" width="1.50" shape="617.75,887.00 617.75,873.00"/>
        <lane id=":J1_1_2" index="2" speed="18.00" length="14.00" width="1.50" shape="619.25,887.00 619.25,873.00"/>
    </edge>
    <edge id=":J1_4" function="internal">
        <lane id=":J1_4_0" index="0" speed="7.73" length="4.92" width="1.50" shape="619.25,887.00 619.83,883.61 620.69,882.41"/>
    </edge>
    <edge id=":J1_5" function="internal">
        <lane id=":J1_5_0" index="0" speed="2.50" length="1.87" width="1.50" shape="619.25,887.00 619.62,886.44 620.00,886.25 620.38,886.44 620.57,886.73"/>
    </edge>
    <edge id=":J1_22" function="internal">
        <lane id=":J1_22_0" index="0" speed="7.73" length="8.81" width="1.50" shape="620.69,882.41 621.56,881.19 624.45,879.73 628.50,879.25"/>
    </edge>
    <edge id=":J1_23" function="internal">
        <lane id=":J1_23_0" index="0" speed="2.50" length="0.32" width="1.50" shape="620.57,886.73 620.75,887.00"/>
    </edge>
    <edge id=":J1_6" function="internal">
        <lane id=":J1_6_0" index="0" speed="5.85" length="7.66" width="1.50" shape="628.50,882.25 626.42,882.55 624.94,883.44 624.05,884.92 623.75,887.00"/>
    </edge>
    <edge id=":J1_7" function="internal">
        <lane id=":J1_7_0" index="0" speed="15.00" length="17.00" width="1.50" shape="628.50,882.25 611.50,882.25"/>
        <lane id=":J1_7_1" index="1" speed="15.00" length="17.00" width="1.50" shape="628.50,880.75 611.50,880.75"/>
    </edge>
    <edge id=":J1_9" function="internal">
        <lane id=":J1_9_0" index="0" speed="7.73" length="6.25" width="1.50" shape="628.50,880.75 624.45,880.27 622.51,879.29"/>
    </edge>
    <edge id=":J1_10" function="internal">
        <lane id=":J1_10_0" index="0" speed="2.50" length="1.87" width="1.50" shape="628.50,880.75 627.94,880.38 627.75,880.00 627.94,879.62 628.23,879.43"/>
    </edge>
    <edge id=":J1_24" function="internal">
        <lane id=":J1_24_0" index="0" speed="7.73" length="7.48" width="1.50" shape="622.51,879.29 621.56,878.81 619.83,876.39 619.25,873.00"/>
    </edge>
    <edge id=":J1_25" function="internal">
        <lane id=":J1_25_0" index="0" speed="2.50" length="0.32" width="1.50" shape="628.23,879.43 628.50,879.25"/>
    </edge>
    <edge id=":J1_11" function="internal">
        <lane id=":J1_11_0" index="0" speed="5.85" length="7.66" width="1.50" shape="623.75,873.00 624.05,875.08 624.94,876.56 626.42,877.45 628.50,877.75"/>
    </edge>
    <edge id=":J1_12" function="internal">
        <lane id=":J1_12_0" index="0" speed="18.00" length="14.00" width="1.50" shape="623.75,873.00 623.75,887.00"/>
        <lane id=":J1_12_1" index="1" speed="18.00" length="14.00" width="1.50" shape="622.25,873.00 622.25,887.00"/>
        <lane id=":J1_12_2" index="2" speed="18.00" length="14.00" width="1.50" shape="620.75,873.00 620.75,887.00"/>
    </edge>
    <edge id=":J1_15" function="internal">
        <lane id=":J1_15_0" index="0" speed="7.73" length="4.92" width="1.50" shape="620.75,873.00 620.17,876.39 619.31,877.59"/>
    </edge>
    <edge id=":J1_16" function="internal">
        <lane id=":J1_16_0" index="0" speed="2.50" length="1.87" width="1.50" shape="620.75,873.00 620.38,873.56 620.00,873.75 619.62,873.56 619.43,873.27"/>
    </edge>
    <edge id=":J1_26" function="internal">
        <lane id=":J1_26_0" index="0" speed="7.73" length="8.81" width="1.50" shape="619.31,877.59 618.44,878.81 615.55,880.27 611.50,880.75"/>
    </edge>
    <edge id=":J1_27" function="internal">
        <lane id=":J1_27_0" index="0" speed="2.50" length="0.32" width="1.50" shape="619.43,873.27 619.25,873.00"/>
    </edge>
    <edge id=":J1_17" function="internal">
        <lane id=":J1_17_0" index="0" speed="5.85" length="7.66" width="1.50" shape="611.50,877.75 613.58,877.45 615.06,876.56 615.95,875.08 616.25,873.00"/>
    </edge>
    <edge id=":J1_18" function="internal">
        <lane id=":J1_18_0" index="0" speed="15.00" length="17.00" width="1.50" shape="611.50,877.75 628.50,877.75"/>
        <lane id=":J1_18_1" index="1" speed="15.00" length="17.00" width="1.50" shape="611.50,879.25 628.50,879.25"/>
    </edge>
    <edge id=":J1_20" function="internal">
        <lane id=":J1_20_0" index="0" speed="7.73" length="6.25" width="1.50" shape="611.50,879.25 615.55,879.73 617.49,880.71"/>
    </edge>
    <edge id=":J1_21" function="internal">
        <lane id=":J1_21_0" index="0" speed="2.50" length="1.87" width="1.50" shape="611.50,879.25 612.06,879.62 612.25,880.00 612.06,880.38 611.77,880.57"/>
    </edge>
    <edge id=":J1_28" function="internal">
        <lane id=":J1_28_0" index="0" speed="7.73" length="7.48" width="1.50" shape="617.49,880.71 618.44,881.19 620.17,883.61 620.75,887.00"/>
    </edge>
    <edge id=":J1_29" function="internal">
        <lane id=":J1_29_0" index="0" speed="2.50" length="0.32" width="1.50" shape="611.77,880.57 611.50,880.75"/>
    </edge>
    <edge id=":J2_0" function="internal">
        <lane id=":J2_0_0" index="0" speed="5.85" length="7.66" width="1.50" shape="297.75,648.50 297.45,646.42 296.56,644.94 295.08,644.05 293.00,643.75"/>
    </edge>
    <edge id=":J2_1" function="internal">
        <lane id=":J2_1_0" index="0" speed="14.00" length="17.00" width="1.50" shape="297.75,648.50 297.75,631.50"/>
        <lane id=":J2_1_1" index="1" speed="14.00" length="17.00" width="1.50" shape="299.25,648.50 299.25,631.50"/>
    </edge>
    <edge id=":J2_3" function="internal">
        <lane id=":J2_3_0" index="0" speed="13.00" length="6.27" width="1.50" shape="299.25,648.50 299.94,644.10 300.73,642.46"/>
    </edge>
    <edge id=":J2_4" function="internal">
        <lane id=":J2_4_0" index="0" speed="8.88" length="5.05" width="1.50" shape="299.25,648.50 300.08,644.45 300.68,643.76"/>
    </edge>
    <edge id=":J2_5" function="internal">
        <lane id=":J2_5_0" index="0" speed="2.50" length="1.87" width="1.50" shape="299.25,648.50 299.62,647.94 300.00,647.75 300.38,647.94 300.57,648.23"/>
    </edge>
    <edge id=":J2_31" function="internal">
        <lane id=":J2_31_0" index="0" speed="13.00" length="14.91" width="1.50" shape="300.73,642.46 302.03,639.76 305.49,635.50 310.35,631.30"/>
    </edge>
    <edge id=":J2_32" function="internal">
        <lane id=":J2_32_0" index="0" speed="8.88" length="13.21" width="1.50" shape="300.68,643.76 302.56,641.56 306.70,639.83 312.50,639.25"/>
    </edge>
    <edge id=":J2_33" function="internal">
        <lane id=":J2_33_0" index="0" speed="2.50" length="0.32" width="1.50" shape="300.57,648.23 300.75,648.50"/>
    </edge>
    <edge id=":J2_6" function="internal">
        <lane id=":J2_6_0" index="0" speed="7.37" length="12.42" width="1.50" shape="312.50,643.75 308.02,644.05 304.81,644.94 302.89,646.42 302.25,648.50"/>
    </edge>
    <edge id=":J2_7" function="internal">
        <lane id=":J2_7_0" index="0" speed="17.00" length="19.50" width="1.50" shape="312.50,643.75 293.00,643.75"/>
        <lane id=":J2_7_1" index="1" speed="17.00" length="19.50" width="1.50" shape="312.50,642.25 293.00,642.25"/>
        <lane id=":J2_7_2" index="2" speed="17.00" length="19.50" width="1.50" shape="312.50,640.75 293.00,640.75"/>
    </edge>
    <edge id=":J2_10" function="internal">
        <lane id=":J2_10_0" index="0" speed="8.88" length="8.14" width="1.50" shape="312.50,640.75 306.70,640.17 304.57,639.28"/>
    </edge>
    <edge id=":J2_11" function="internal">
        <lane id=":J2_11_0" index="0" speed="6.79" length="6.99" width="1.50" shape="312.50,640.75 306.83,640.16 305.82,639.36"/>
    </edge>
    <edge id=":J2_12" function="internal">
        <lane id=":J2_12_0" index="0" speed="2.50" length="1.87" width="1.50" shape="312.50,640.75 311.94,640.38 311.75,640.00 311.94,639.62 312.23,639.43"/>
    </edge>
    <edge id=":J2_34" function="internal">
        <lane id=":J2_34_0" index="0" speed="8.88" length="10.12" width="1.50" shape="304.57,639.28 302.56,638.44 300.08,635.55 299.25,631.50"/>
    </edge>
    <edge id=":J2_35" function="internal">
        <lane id=":J2_35_0" index="0" speed="6.79" length="10.92" width="1.50" shape="305.82,639.36 304.59,638.39 305.76,635.43 310.35,631.30"/>
    </edge>
    <edge id=":J2_36" function="internal">
        <lane id=":J2_36_0" index="0" speed="2.50" length="0.32" width="1.50" shape="312.23,639.43 312.50,639.25"/>
    </edge>
    <edge id=":J2_13" function="internal">
        <lane id=":J2_13_0" index="0" speed="4.48" length="7.34" width="1.50" shape="311.25,632.50 309.45,634.14 309.06,635.31 310.08,636.02 312.50,636.25"/>
    </edge>
    <edge id=":J2_14" function="internal">
        <lane id=":J2_14_0" index="0" speed="12.63" length="19.04" width="1.50" shape="311.25,632.50 307.31,636.03 304.50,639.88 302.81,644.03 302.25,648.50"/>
    </edge>
    <edge id=":J2_15" function="internal">
        <lane id=":J2_15_0" index="0" speed="14.50" length="21.30" width="1.50" shape="311.25,632.50 308.17,635.29 304.50,638.50 299.65,641.15 293.00,642.25"/>
    </edge>
    <edge id=":J2_16" function="internal">
        <lane id=":J2_16_0" index="0" speed="6.99" length="16.63" width="1.50" shape="311.25,632.50 306.00,635.81 302.25,636.75 300.00,635.31 299.25,631.50"/>
    </edge>
    <edge id=":J2_17" function="internal">
        <lane id=":J2_17_0" index="0" speed="2.50" length="1.99" width="1.50" shape="311.25,632.50 310.58,632.54 310.20,632.35 310.13,631.94 310.28,631.49"/>
    </edge>
    <edge id=":J2_37" function="internal">
        <lane id=":J2_37_0" index="0" speed="2.50" length="0.20" width="1.50" shape="310.28,631.49 310.35,631.30"/>
    </edge>
    <edge id=":J2_18" function="internal">
        <lane id=":J2_18_0" index="0" speed="5.70" length="10.79" width="1.50" shape="302.25,631.50 302.76,633.69 304.28,634.39 306.81,633.59 310.35,631.30"/>
    </edge>
    <edge id=":J2_19" function="internal">
        <lane id=":J2_19_0" index="0" speed="7.66" length="13.46" width="1.50" shape="302.25,631.50 302.89,634.23 304.81,636.19 308.02,637.36 312.50,637.75"/>
    </edge>
    <edge id=":J2_20" function="internal">
        <lane id=":J2_20_0" index="0" speed="14.00" length="17.00" width="1.50" shape="302.25,631.50 302.25,648.50"/>
        <lane id=":J2_20_1" index="1" speed="14.00" length="17.00" width="1.50" shape="300.75,631.50 300.75,648.50"/>
    </edge>
    <edge id=":J2_22" function="internal">
        <lane id=":J2_22_0" index="0" speed="7.73" length="6.25" width="1.50" shape="300.75,631.50 300.27,635.55 299.29,637.49"/>
    </edge>
    <edge id=":J2_23" function="internal">
        <lane id=":J2_23_0" index="0" speed="2.50" length="1.87" width="1.50" shape="300.75,631.50 300.38,632.06 300.00,632.25 299.62,632.06 299.43,631.77"/>
    </edge>
    <edge id=":J2_38" function="internal">
        <lane id=":J2_38_0" index="0" speed="7.73" length="7.48" width="1.50" shape="299.29,637.49 298.81,638.44 296.39,640.17 293.00,640.75"/>
    </edge>
    <edge id=":J2_39" function="internal">
        <lane id=":J2_39_0" index="0" speed="2.50" length="0.32" width="1.50" shape="299.43,631.77 299.25,631.50"/>
    </edge>
    <edge id=":J2_24" function="internal">
        <lane id=":J2_24_0" index="0" speed="5.85" length="7.66" width="1.50" shape="293.00,636.25 295.08,635.95 296.56,635.06 297.45,633.58 297.75,631.50"/>
    </edge>
    <edge id=":J2_25" function="internal">
        <lane id=":J2_25_0" index="0" speed="14.50" length="18.39" width="1.50" shape="293.00,636.25 298.95,635.90 303.56,634.90 307.22,633.34 310.35,631.30"/>
    </edge>
    <edge id=":J2_26" function="internal">
        <lane id=":J2_26_0" index="0" speed="17.00" length="19.50" width="1.50" shape="293.00,636.25 312.50,636.25"/>
        <lane id=":J2_26_1" index="1" speed="17.00" length="19.50" width="1.50" shape="293.00,637.75 312.50,637.75"/>
        <lane id=":J2_26_2" index="2" speed="17.00" length="19.50" width="1.50" shape="293.00,639.25 312.50,639.25"/>
    </edge>
    <edge id=":J2_29" function="internal">
        <lane id=":J2_29_0" index="0" speed="7.73" length="4.92" width="1.50" shape="293.00,639.25 296.39,639.83 297.59,640.69"/>
    </edge>
    <edge id=":J2_30" function="internal">
        <lane id=":J2_30_0" index="0" speed="2.50" length="1.87" width="1.50" shape="293.00,639.25 293.56,639.62 293.75,640.00 293.56,640.38 293.27,640.57"/>
    </edge>
    <edge id=":J2_40" function="internal">
        <lane id=":J2_40_0" index="0" speed="7.73" length="8.81" width="1.50" shape="297.59,640.69 298.81,641.56 300.27,644.45 300.75,648.50"/>
    </edge>
    <edge id=":J2_41" function="internal">
        <lane id=":J2_41_0" index="0" speed="2.50" length="0.32" width="1.50" shape="293.27,640.57 293.00,640.75"/>
    </edge>
    <edge id=":J3_0" function="internal">
        <lane id=":J3_0_0" index="0" speed="5.85" length="7.66" width="1.50" shape="616.25,648.50 615.95,646.42 615.06,644.94 613.58,644.05 611.50,643.75"/>
    </edge>
    <edge id=":J3_1" function="internal">
        <lane id=":J3_1_0" index="0" speed="18.00" length="17.00" width="1.50" shape="616.25,648.50 616.25,631.50"/>
        <lane id=":J3_1_1" index="1" speed="18.00" length="17.00" width="1.50" shape="617.75,648.50 617.75,631.50"/>
        <lane id=":J3_1_2" index="2" speed="18.00" length="17.00" width="1.50" shape="619.25,648.50 619.25,631.50"/>
    </edge>
    <edge id=":J3_4" function="internal">
        <lane id=":J3_4_0" index="0" speed="8.05" length="5.78" width="1.50" shape="619.25,648.50 619.83,644.45 620.70,643.00"/>
    </edge>
    <edge id=":J3_5" function="internal">
        <lane id=":J3_5_0" index="0" speed="2.50" length="1.87" width="1.50" shape="619.25,648.50 619.62,647.94 620.00,647.75 620.38,647.94 620.57,648.23"/>
    </edge>
    <edge id=":J3_24" function="internal">
        <lane id=":J3_24_0" index="0" speed="8.05" length="9.13" width="1.50" shape="620.70,643.00 621.56,641.56 624.45,639.83 628.50,639.25"/>
    </edge>
    <edge id=":J3_25" function="internal">
        <lane id=":J3_25_0" index="0" speed="2.50" length="0.32" width="1.50" shape="620.57,648.23 620.75,648.50"/>
    </edge>
    <edge id=":J3_6" function="internal">
        <lane id=":J3_6_0" index="0" speed="5.85" length="7.66" width="1.50" shape="628.50,643.75 626.42,644.05 624.94,644.94 624.05,646.42 623.75,648.50"/>
    </edge>
    <edge id=":J3_7" function="internal">
        <lane id=":J3_7_0" index="0" speed="17.00" length="17.00" width="1.50" shape="628.50,643.75 611.50,643.75"/>
        <lane id=":J3_7_1" index="1" speed="17.00" length="17.00" width="1.50" shape="628.50,642.25 611.50,642.25"/>
        <lane id=":J3_7_2" index="2" speed="17.00" length="17.00" width="1.50" shape="628.50,640.75 611.50,640.75"/>
    </edge>
    <edge id=":J3_10" function="internal">
        <lane id=":J3_10_0" index="0" speed="8.05" length="5.78" width="1.50" shape="628.50,640.75 624.45,640.17 623.00,639.30"/>
    </edge>
    <edge id=":J3_11" function="internal">
        <lane id=":J3_11_0" index="0" speed="2.50" length="1.87" width="1.50" shape="628.50,640.75 627.94,640.38 627.75,640.00 627.94,639.62 628.23,639.43"/>
    </edge>
    <edge id=":J3_26" function="internal">
        <lane id=":J3_26_0" index="0" speed="8.05" length="9.13" width="1.50" shape="623.00,639.30 621.56,638.44 619.83,635.55 619.25,631.50"/>
    </edge>
    <edge id=":J3_27" function="internal">
        <lane id=":J3_27_0" index="0" speed="2.50" length="0.32" width="1.50" shape="628.23,639.43 628.50,639.25"/>
    </edge>
    <edge id=":J3_12" function="internal">
        <lane id=":J3_12_0" index="0" speed="5.85" length="7.66" width="1.50" shape="623.75,631.50 624.05,633.58 624.94,635.06 626.42,635.95 628.50,636.25"/>
    </edge>
    <edge id=":J3_13" function="internal">
        <lane id=":J3_13_0" index="0" speed="18.00" length="17.00" width="1.50" shape="623.75,631.50 623.75,648.50"/>
        <lane id=":J3_13_1" index="1" speed="18.00" length="17.00" width="1.50" shape="622.25,631.50 622.25,648.50"/>
        <lane id=":J3_13_2" index="2" speed="18.00" length="17.00" width="1.50" shape="620.75,631.50 620.75,648.50"/>
    </edge>
    <edge id=":J3_16" function="internal">
        <lane id=":J3_16_0" index="0" speed="8.05" length="5.78" width="1.50" shape="620.75,631.50 620.17,635.55 619.30,637.00"/>
    </edge>
    <edge id=":J3_17" function="internal">
        <lane id=":J3_17_0" index="0" speed="2.50" length="1.87" width="1.50" shape="620.75,631.50 620.38,632.06 620.00,632.25 619.62,632.06 619.43,631.77"/>
    </edge>
    <edge id=":J3_28" function="internal">
        <lane id=":J3_28_0" index="0" speed="8.05" length="9.13" width="1.50" shape="619.30,637.00 618.44,638.44 615.55,640.17 611.50,640.75"/>
    </edge>
    <edge id=":J3_29" function="internal">
        <lane id=":J3_29_0" index="0" speed="2.50" length="0.32" width="1.50" shape="619.43,631.77 619.25,631.50"/>
    </edge>
    <edge id=":J3_18" function="internal">
        <lane id=":J3_18_0" index="0" speed="5.85" length="7.66" width="1.50" shape="611.50,636.25 613.58,635.95 615.06,635.06 615.95,633.58 616.25,631.50"/>
    </edge>
    <edge id=":J3_19" function="internal">
        <lane id=":J3_19_0" index="0" speed="17.00" length="17.00" width="1.50" shape="611.50,636.25 628.50,636.25"/>
        <lane id=":J3_19_1" index="1" speed="17.00" length="17.00" width="1.50" shape="611.50,637.75 628.50,637.75"/>
        <lane id=":J3_19_2" index="2" speed="17.00" length="17.00" width="1.50" shape="611.50,639.25 628.50,639.25"/>
    </edge>
    <edge id=":J3_22" function="internal">
        <lane id=":J3_22_0" index="0" speed="8.05" length="5.78" width="1.50" shape="611.50,639.25 615.55,639.83 617.00,640.70"/>
    </edge>
    <edge id=":J3_23" function="internal">
        <lane id=":J3_23_0" index="0" speed="2.50" length="1.87" width="1.50" shape="611.50,639.25 612.06,639.62 612.25,640.00 612.06,640.38 611.77,640.57"/>
    </edge>
    <edge id=":J3_30" function="internal">
        <lane id=":J3_30_0" index="0" speed="8.05" length="9.13" width="1.50" shape="617.00,640.70 618.44,641.56 620.17,644.45 620.75,648.50"/>
    </edge>
    <edge id=":J3_31" function="internal">
        <lane id=":J3_31_0" index="0" speed="2.50" length="0.32" width="1.50" shape="611.77,640.57 611.50,640.75"/>
    </edge>
    <edge id=":J4_0" function="internal">
        <lane id=":J4_0_0" index="0" speed="17.00" length="14.00" width="1.50" shape="947.00,643.75 933.00,643.75"/>
        <lane id=":J4_0_1" index="1" speed="17.00" length="14.00" width="1.50" shape="947.00,642.25 933.00,642.25"/>
        <lane id=":J4_0_2" index="2" speed="17.00" length="14.00" width="1.50" shape="947.00,640.75 933.00,640.75"/>
    </edge>
    <edge id=":J4_3" function="internal">
        <lane id=":J4_3_0" index="0" speed="7.73" length="4.92" width="1.50" shape="947.00,640.75 943.61,640.17 942.41,639.31"/>
    </edge>
    <edge id=":J4_4" function="internal">
        <lane id=":J4_4_0" index="0" speed="2.50" length="1.87" width="1.50" shape="947.00,640.75 946.44,640.38 946.25,640.00 946.44,639.62 946.73,639.43"/>
    </edge>
    <edge id=":J4_15" function="internal">
        <lane id=":J4_15_0" index="0" speed="7.73" length="8.81" width="1.50" shape="942.41,639.31 941.19,638.44 939.73,635.55 939.25,631.50"/>
    </edge>
    <edge id=":J4_16" function="internal">
        <lane id=":J4_16_0" index="0" speed="2.50" length="0.32" width="1.50" shape="946.73,639.43 947.00,639.25"/>
    </edge>
    <edge id=":J4_5" function="internal">
        <lane id=":J4_5_0" index="0" speed="5.85" length="7.66" width="1.50" shape="942.25,631.50 942.55,633.58 943.44,635.06 944.92,635.95 947.00,636.25"/>
        <lane id=":J4_5_1" index="1" speed="6.66" length="10.08" width="1.50" shape="940.75,631.50 941.14,634.23 942.31,636.19 944.27,637.36 947.00,637.75"/>
    </edge>
    <edge id=":J4_7" function="internal">
        <lane id=":J4_7_0" index="0" speed="8.07" length="15.00" width="1.50" shape="940.75,631.50 940.27,636.20 938.81,639.56 936.39,641.58 933.00,642.25"/>
        <lane id=":J4_7_1" index="1" speed="7.73" length="13.73" width="1.50" shape="940.75,631.50 940.27,635.55 938.81,638.44 936.39,640.17 933.00,640.75"/>
    </edge>
    <edge id=":J4_9" function="internal">
        <lane id=":J4_9_0" index="0" speed="2.50" length="1.10" width="1.50" shape="940.75,631.50 940.38,632.06 940.00,632.25"/>
    </edge>
    <edge id=":J4_17" function="internal">
        <lane id=":J4_17_0" index="0" speed="2.50" length="1.10" width="1.50" shape="940.00,632.25 939.62,632.06 939.25,631.50"/>
    </edge>
    <edge id=":J4_10" function="internal">
        <lane id=":J4_10_0" index="0" speed="5.85" length="7.66" width="1.50" shape="933.00,636.25 935.08,635.95 936.56,635.06 937.45,633.58 937.75,631.50"/>
    </edge>
    <edge id=":J4_11" function="internal">
        <lane id=":J4_11_0" index="0" speed="17.00" length="14.00" width="1.50" shape="933.00,636.25 947.00,636.25"/>
        <lane id=":J4_11_1" index="1" speed="17.00" length="14.00" width="1.50" shape="933.00,637.75 947.00,637.75"/>
        <lane id=":J4_11_2" index="2" speed="17.00" length="14.00" width="1.50" shape="933.00,639.25 947.00,639.25"/>
    </edge>
    <edge id=":J4_14" function="internal">
        <lane id=":J4_14_0" index="0" speed="2.50" length="1.87" width="1.50" shape="933.00,639.25 933.56,639.62 933.75,640.00 933.56,640.38 933.27,640.57"/>
    </edge>
    <edge id=":J4_18" function="internal">
        <lane id=":J4_18_0" index="0" speed="2.50" length="0.32" width="1.50" shape="933.27,640.57 933.00,640.75"/>
    </edge>
    <edge id=":J5_0" function="internal">
        <lane id=":J5_0_0" index="0" speed="5.85" length="7.66" width="1.50" shape="297.75,407.00 297.45,404.92 296.56,403.44 295.08,402.55 293.00,402.25"/>
    </edge>
    <edge id=":J5_1" function="internal">
        <lane id=":J5_1_0" index="0" speed="7.39" length="12.50" width="1.50" shape="299.25,407.00 299.73,403.61 301.19,401.19 303.61,399.73 307.00,399.25"/>
    </edge>
    <edge id=":J5_2" function="internal">
        <lane id=":J5_2_0" index="0" speed="2.50" length="2.19" width="1.50" shape="299.25,407.00 299.62,406.44 300.00,406.25 300.38,406.44 300.75,407.00"/>
    </edge>
    <edge id=":J5_3" function="internal">
        <lane id=":J5_3_0" index="0" speed="5.85" length="7.66" width="1.50" shape="307.00,402.25 304.92,402.55 303.44,403.44 302.55,404.92 302.25,407.00"/>
    </edge>
    <edge id=":J5_4" function="internal">
        <lane id=":J5_4_0" index="0" speed="15.00" length="14.00" width="1.50" shape="307.00,402.25 293.00,402.25"/>
        <lane id=":J5_4_1" index="1" speed="15.00" length="14.00" width="1.50" shape="307.00,400.75 293.00,400.75"/>
    </edge>
    <edge id=":J5_6" function="internal">
        <lane id=":J5_6_0" index="0" speed="2.50" length="1.87" width="1.50" shape="307.00,400.75 306.44,400.38 306.25,400.00 306.44,399.62 306.73,399.43"/>
    </edge>
    <edge id=":J5_11" function="internal">
        <lane id=":J5_11_0" index="0" speed="2.50" length="0.32" width="1.50" shape="306.73,399.43 307.00,399.25"/>
    </edge>
    <edge id=":J5_7" function="internal">
        <lane id=":J5_7_0" index="0" speed="15.00" length="14.00" width="1.50" shape="293.00,397.75 307.00,397.75"/>
        <lane id=":J5_7_1" index="1" speed="15.00" length="14.00" width="1.50" shape="293.00,399.25 307.00,399.25"/>
    </edge>
    <edge id=":J5_9" function="internal">
        <lane id=":J5_9_0" index="0" speed="7.39" length="5.30" width="1.50" shape="293.00,399.25 296.39,399.73 298.00,400.70"/>
    </edge>
    <edge id=":J5_10" function="internal">
        <lane id=":J5_10_0" index="0" speed="2.50" length="1.87" width="1.50" shape="293.00,399.25 293.56,399.62 293.75,400.00 293.56,400.38 293.27,400.57"/>
    </edge>
    <edge id=":J5_12" function="internal">
        <lane id=":J5_12_0" index="0" speed="7.39" length="7.19" width="1.50" shape="298.00,400.70 298.81,401.19 300.27,403.61 300.75,407.00"/>
    </edge>
    <edge id=":J5_13" function="internal">
        <lane id=":J5_13_0" index="0" speed="2.50" length="0.32" width="1.50" shape="293.27,400.57 293.00,400.75"/>
    </edge>
    <edge id=":J6_0" function="internal">
        <lane id=":J6_0_0" index="0" speed="4.77" length="7.35" width="1.50" shape="616.25,409.25 615.96,407.06 615.10,405.99 613.66,406.03 611.65,407.20"/>
    </edge>
    <edge id=":J6_1" function="internal">
        <lane id=":J6_1_0" index="0" speed="6.98" length="11.09" width="1.50" shape="616.25,409.25 615.83,406.19 614.56,404.00 612.45,402.69 609.50,402.25"/>
    </edge>
    <edge id=":J6_2" function="internal">
        <lane id=":J6_2_0" index="0" speed="18.00" length="16.25" width="1.50" shape="616.25,409.25 616.25,393.00"/>
        <lane id=":J6_2_1" index="1" speed="18.00" length="16.25" width="1.50" shape="617.75,409.25 617.75,393.00"/>
        <lane id=":J6_2_2" index="2" speed="18.00" length="16.25" width="1.50" shape="619.25,409.25 619.25,393.00"/>
    </edge>
    <edge id=":J6_5" function="internal">
        <lane id=":J6_5_0" index="0" speed="8.20" length="6.22" width="1.50" shape="619.25,409.25 619.83,404.88 620.71,403.29"/>
    </edge>
    <edge id=":J6_6" function="internal">