<?xml version="1.0" encoding="UTF-8"?>

<!-- generated on 2026-04-11T15:00:44.083857+05:30 by Eclipse SUMO netconvert 1.26.0
<netconvertConfiguration xmlns:xsi="http://www.w3.org/2001/XMLSchema-instance" xsi:noNamespaceSchemaLocation="http://sumo.dlr.de/xsd/netconvertConfiguration.xsd">

    <input>
        <node-files value="C:\Users\santhosh\OneDrive\Desktop\trafiic pro\web_runs\20260411_150043_845692\area.nod.xml"/>
        <edge-files value="C:\Users\santhosh\OneDrive\Desktop\trafiic pro\web_runs\20260411_150043_845692\area.edg.xml"/>
    </input>

    <output>
        <output-file value="C:\Users\santhosh\OneDrive\Desktop\trafiic pro\web_runs\20260411_150043_845692\area.net.xml"/>
    </output>

</netconvertConfiguration>
-->

<net version="1.20" junctionCornerDetail="5" limitTurnSpeed="5.50" xmlns:xsi="http://www.w3.org/2001/XMLSchema-instance" xsi:noNamespaceSchemaLocation="http://sumo.dlr.de/xsd/net_file.xsd">

    <location netOffset="0.00,0.00" convBoundary="0.00,0.00,900.00,738.00" origBoundary="0.00,0.00,900.00,738.00" projParameter="!"/>

    <edge id=":E0_0" function="internal">
        <lane id=":E0_0_0" index="0" speed="3.65" length="4.67" shape="900.00,105.33 901.20,106.13 901.60,106.93 901.20,107.73 900.00,108.53"/>
    </edge>
    <edge id=":E1_0" function="internal">
        <lane id=":E1_0_0" index="0" speed="3.65" length="4.67" shape="900.00,617.37 901.20,618.17 901.60,618.97 901.20,619.77 900.00,620.57"/>
    </edge>
    <edge id=":J0_0_0" function="internal">
        <lane id=":J0_0_0_0" index="0" speed="7.00" length="10.07" shape="150.36,109.42 147.76,109.81 145.83,110.99 144.59,112.97 144.03,115.75"/>
    </edge>
    <edge id=":J0_0_1" function="internal">
        <lane id=":J0_0_1_0" index="0" speed="13.90" length="21.23" shape="150.36,109.42 129.13,109.38"/>
        <lane id=":J0_0_1_1" index="1" speed="13.90" length="21.23" shape="150.37,106.22 129.13,106.18"/>
    </edge>
    <edge id=":J0_0_3" function="internal">
        <lane id=":J0_0_3_0" index="0" speed="9.27" length="4.94" shape="150.37,106.22 145.48,105.50"/>
    </edge>
    <edge id=":J0_0_4" function="internal">
        <lane id=":J0_0_4_0" index="0" speed="3.65" length="1.44" shape="150.37,106.22 149.17,105.41"/>
    </edge>
    <edge id=":J0_0_20" function="internal">
        <lane id=":J0_0_20_0" index="0" speed="9.27" length="14.40" shape="145.48,105.50 145.13,105.45 141.39,103.19 139.15,99.43 138.40,94.18"/>
    </edge>
    <edge id=":J0_0_21" function="internal">
        <lane id=":J0_0_21_0" index="0" speed="3.65" length="3.23" shape="149.17,105.41 148.78,104.61 149.18,103.81 150.38,103.02"/>
    </edge>
    <edge id=":J0_0_5" function="internal">
        <lane id=":J0_0_5_0" index="0" speed="6.52" length="9.05" shape="144.80,94.18 145.15,96.64 146.20,98.40 147.95,99.46 150.39,99.82"/>
    </edge>
    <edge id=":J0_0_6" function="internal">
        <lane id=":J0_0_6_0" index="0" speed="13.90" length="21.48" shape="144.80,94.18 144.03,115.75"/>
        <lane id=":J0_0_6_1" index="1" speed="13.90" length="21.48" shape="141.60,94.18 140.83,115.53"/>
    </edge>
    <edge id=":J0_0_8" function="internal">
        <lane id=":J0_0_8_0" index="0" speed="9.34" length="5.31" shape="141.60,94.18 140.82,99.43"/>
    </edge>
    <edge id=":J0_0_9" function="internal">
        <lane id=":J0_0_9_0" index="0" speed="3.65" length="1.44" shape="141.60,94.18 140.80,95.38"/>
    </edge>
    <edge id=":J0_0_22" function="internal">
        <lane id=":J0_0_22_0" index="0" speed="9.34" length="14.42" shape="140.82,99.43 138.48,103.18 134.59,105.43 129.13,106.18"/>
    </edge>
    <edge id=":J0_0_23" function="internal">
        <lane id=":J0_0_23_0" index="0" speed="3.65" length="3.23" shape="140.80,95.38 140.00,95.78 139.20,95.38 138.40,94.18"/>
    </edge>
    <edge id=":J0_0_10" function="internal">
        <lane id=":J0_0_10_0" index="0" speed="6.63" length="9.41" shape="129.13,99.78 131.79,99.43 133.68,98.38 134.82,96.63 135.20,94.18"/>
    </edge>
    <edge id=":J0_0_11" function="internal">
        <lane id=":J0_0_11_0" index="0" speed="13.90" length="21.25" shape="129.13,99.78 150.39,99.82"/>
        <lane id=":J0_0_11_1" index="1" speed="13.90" length="21.25" shape="129.13,102.98 150.38,103.02"/>
    </edge>
    <edge id=":J0_0_13" function="internal">
        <lane id=":J0_0_13_0" index="0" speed="9.15" length="5.04" shape="129.13,102.98 134.12,103.70"/>
    </edge>
    <edge id=":J0_0_14" function="internal">
        <lane id=":J0_0_14_0" index="0" speed="3.65" length="1.44" shape="129.13,102.98 130.33,103.78"/>
    </edge>
    <edge id=":J0_0_24" function="internal">
        <lane id=":J0_0_24_0" index="0" speed="9.15" length="14.86" shape="134.12,103.70 134.58,103.76 138.35,106.12 140.43,110.04 140.83,115.53"/>
    </edge>
    <edge id=":J0_0_25" function="internal">
        <lane id=":J0_0_25_0" index="0" speed="3.65" length="3.23" shape="130.33,103.78 130.73,104.58 130.33,105.38 129.13,106.18"/>
    </edge>
    <edge id=":J0_0_15" function="internal">
        <lane id=":J0_0_15_0" index="0" speed="6.36" length="9.04" shape="134.45,115.08 134.27,112.59 133.32,110.81 131.61,109.74 129.13,109.38"/>
    </edge>
    <edge id=":J0_0_16" function="internal">
        <lane id=":J0_0_16_0" index="0" speed="13.90" length="21.03" shape="134.45,115.08 135.20,94.18"/>
        <lane id=":J0_0_16_1" index="1" speed="13.90" length="21.03" shape="137.64,115.31 138.40,94.18"/>
    </edge>
    <edge id=":J0_0_18" function="internal">
        <lane id=":J0_0_18_0" index="0" speed="9.62" length="4.22" shape="137.64,115.31 138.50,111.17"/>
    </edge>
    <edge id=":J0_0_19" function="internal">
        <lane id=":J0_0_19_0" index="0" speed="3.65" length="1.44" shape="137.64,115.31 138.52,114.17"/>
    </edge>
    <edge id=":J0_0_26" function="internal">
        <lane id=":J0_0_26_0" index="0" speed="9.62" length="15.68" shape="138.50,111.17 138.76,109.91 141.26,106.07 145.13,103.77 150.38,103.02"/>
    </edge>
    <edge id=":J0_0_27" function="internal">
        <lane id=":J0_0_27_0" index="0" speed="3.65" length="3.23" shape="138.52,114.17 139.35,113.82 140.12,114.28 140.83,115.53"/>
    </edge>
    <edge id=":J0_1_0" function="internal">
        <lane id=":J0_1_0_0" index="0" speed="6.63" length="9.29" shape="793.50,111.73 791.01,112.09 789.21,113.17 788.11,114.98 787.71,117.51"/>
    </edge>
    <edge id=":J0_1_1" function="internal">
        <lane id=":J0_1_1_0" index="0" speed="13.90" length="20.90" shape="793.50,111.73 772.59,111.69"/>
        <lane id=":J0_1_1_1" index="1" speed="13.90" length="20.90" shape="793.50,108.53 772.60,108.49"/>
    </edge>
    <edge id=":J0_1_3" function="internal">
        <lane id=":J0_1_3_0" index="0" speed="9.26" length="5.07" shape="793.50,108.53 788.48,107.81"/>
    </edge>
    <edge id=":J0_1_4" function="internal">
        <lane id=":J0_1_4_0" index="0" speed="3.65" length="1.44" shape="793.50,108.53 792.30,107.73"/>
    </edge>
    <edge id=":J0_1_20" function="internal">
        <lane id=":J0_1_20_0" index="0" speed="9.26" length="14.30" shape="788.48,107.81 788.25,107.78 784.50,105.52 782.25,101.77 781.50,96.51"/>
    </edge>
    <edge id=":J0_1_21" function="internal">
        <lane id=":J0_1_21_0" index="0" speed="3.65" length="3.23" shape="792.30,107.73 791.90,106.93 792.30,106.13 793.50,105.33"/>
    </edge>
    <edge id=":J0_1_5" function="internal">
        <lane id=":J0_1_5_0" index="0" speed="6.51" length="9.05" shape="787.90,96.51 788.25,98.97 789.30,100.72 791.05,101.78 793.50,102.13"/>
    </edge>
    <edge id=":J0_1_6" function="internal">
        <lane id=":J0_1_6_0" index="0" speed="13.90" length="20.97" shape="787.90,96.51 787.71,117.51"/>
        <lane id=":J0_1_6_1" index="1" speed="13.90" length="20.97" shape="784.70,96.51 784.51,117.45"/>
    </edge>
    <edge id=":J0_1_8" function="internal">
        <lane id=":J0_1_8_0" index="0" speed="9.26" length="5.18" shape="784.70,96.51 783.96,101.63"/>
    </edge>
    <edge id=":J0_1_9" function="internal">
        <lane id=":J0_1_9_0" index="0" speed="3.65" length="1.44" shape="784.70,96.51 783.90,97.71"/>
    </edge>
    <edge id=":J0_1_22" function="internal">
        <lane id=":J0_1_22_0" index="0" speed="9.26" length="14.26" shape="783.96,101.63 783.94,101.77 781.68,105.52 777.89,107.76 772.60,108.49"/>
    </edge>
    <edge id=":J0_1_23" function="internal">
        <lane id=":J0_1_23_0" index="0" speed="3.65" length="3.23" shape="783.90,97.71 783.10,98.11 782.30,97.71 781.50,96.51"/>
    </edge>
    <edge id=":J0_1_10" function="internal">
        <lane id=":J0_1_10_0" index="0" speed="6.52" length="9.09" shape="772.62,102.09 775.11,101.75 776.88,100.71 777.95,98.96 778.30,96.51"/>
    </edge>
    <edge id=":J0_1_11" function="internal">
        <lane id=":J0_1_11_0" index="0" speed="13.90" length="20.88" shape="772.62,102.09 793.50,102.13"/>
        <lane id=":J0_1_11_1" index="1" speed="13.90" length="20.88" shape="772.61,105.29 793.50,105.33"/>
    </edge>
    <edge id=":J0_1_13" function="internal">
        <lane id=":J0_1_13_0" index="0" speed="9.23" length="4.94" shape="772.61,105.29 777.50,106.01"/>
    </edge>
    <edge id=":J0_1_14" function="internal">
        <lane id=":J0_1_14_0" index="0" speed="3.65" length="1.44" shape="772.61,105.29 773.81,106.10"/>
    </edge>
    <edge id=":J0_1_24" function="internal">
        <lane id=":J0_1_24_0" index="0" speed="9.23" length="14.52" shape="777.50,106.01 777.90,106.07 781.65,108.35 783.85,112.15 784.51,117.45"/>
    </edge>
    <edge id=":J0_1_25" function="internal">
        <lane id=":J0_1_25_0" index="0" speed="3.65" length="3.23" shape="773.81,106.10 774.21,106.90 773.80,107.70 772.60,108.49"/>
    </edge>
    <edge id=":J0_1_15" function="internal">
        <lane id=":J0_1_15_0" index="0" speed="6.48" length="9.03" shape="778.11,117.33 777.80,114.87 776.78,113.11 775.04,112.05 772.59,111.69"/>
    </edge>
    <edge id=":J0_1_16" function="internal">
        <lane id=":J0_1_16_0" index="0" speed="13.90" length="20.86" shape="778.11,117.33 778.30,96.51"/>
        <lane id=":J0_1_16_1" index="1" speed="13.90" length="20.86" shape="781.31,117.39 781.50,96.51"/>
    </edge>
    <edge id=":J0_1_18" function="internal">
        <lane id=":J0_1_18_0" index="0" speed="9.35" length="4.77" shape="781.31,117.39 782.06,112.68"/>
    </edge>
    <edge id=":J0_1_19" function="internal">
        <lane id=":J0_1_19_0" index="0" speed="3.65" length="1.44" shape="781.31,117.39 782.13,116.21"/>
    </edge>
    <edge id=":J0_1_26" function="internal">
        <lane id=":J0_1_26_0" index="0" speed="9.35" length="14.71" shape="782.06,112.68 782.15,112.12 784.47,108.35 788.25,106.08 793.50,105.33"/>
    </edge>
    <edge id=":J0_1_27" function="internal">
        <lane id=":J0_1_27_0" index="0" speed="3.65" length="3.23" shape="782.13,116.21 782.94,115.82 783.73,116.24 784.51,117.45"/>
    </edge>
    <edge id=":J1_0_0" function="internal">
        <lane id=":J1_0_0_0" index="0" speed="6.51" length="9.03" shape="98.55,636.83 98.20,634.38 97.15,632.63 95.40,631.58 92.95,631.23"/>
    </edge>
    <edge id=":J1_0_1" function="internal">
        <lane id=":J1_0_1_0" index="0" speed="13.90" length="21.55" shape="98.55,636.83 99.33,615.18"/>
        <lane id=":J1_0_1_1" index="1" speed="13.90" length="21.55" shape="101.75,636.83 102.52,615.40"/>
    </edge>
    <edge id=":J1_0_3" function="internal">
        <lane id=":J1_0_3_0" index="0" speed="9.40" length="5.31" shape="101.75,636.83 102.53,631.58"/>
    </edge>
    <edge id=":J1_0_4" function="internal">
        <lane id=":J1_0_4_0" index="0" speed="3.65" length="1.44" shape="101.75,636.83 102.55,635.63"/>
    </edge>
    <edge id=":J1_0_20" function="internal">
        <lane id=":J1_0_20_0" index="0" speed="9.40" length="14.52" shape="102.53,631.58 104.88,627.81 108.79,625.52 114.27,624.71"/>
    </edge>
    <edge id=":J1_0_21" function="internal">
        <lane id=":J1_0_21_0" index="0" speed="3.65" length="3.23" shape="102.55,635.63 103.35,635.23 104.15,635.63 104.95,636.83"/>
    </edge>
    <edge id=":J1_0_5" function="internal">
        <lane id=":J1_0_5_0" index="0" speed="6.71" length="9.59" shape="114.34,631.11 111.63,631.49 109.70,632.57 108.54,634.35 108.15,636.83"/>
    </edge>
    <edge id=":J1_0_6" function="internal">
        <lane id=":J1_0_6_0" index="0" speed="13.90" length="21.38" shape="114.34,631.11 92.95,631.23"/>
        <lane id=":J1_0_6_1" index="1" speed="13.90" length="21.38" shape="114.31,627.91 92.95,628.03"/>
    </edge>
    <edge id=":J1_0_8" function="internal">
        <lane id=":J1_0_8_0" index="0" speed="9.14" length="5.16" shape="114.31,627.91 109.19,627.23"/>
    </edge>
    <edge id=":J1_0_9" function="internal">
        <lane id=":J1_0_9_0" index="0" speed="3.65" length="1.44" shape="114.31,627.91 113.10,627.12"/>
    </edge>
    <edge id=":J1_0_22" function="internal">
        <lane id=":J1_0_22_0" index="0" speed="9.14" length="14.82" shape="109.19,627.23 108.82,627.18 105.02,624.85 102.92,620.93 102.52,615.40"/>
    </edge>
    <edge id=":J1_0_23" function="internal">
        <lane id=":J1_0_23_0" index="0" speed="3.65" length="3.23" shape="113.10,627.12 112.69,626.33 113.08,625.52 114.27,624.71"/>
    </edge>
    <edge id=":J1_0_10" function="internal">
        <lane id=":J1_0_10_0" index="0" speed="6.34" length="9.04" shape="108.90,615.85 109.09,618.35 110.04,620.13 111.75,621.18 114.24,621.51"/>
    </edge>
    <edge id=":J1_0_11" function="internal">
        <lane id=":J1_0_11_0" index="0" speed="13.90" length="21.10" shape="108.90,615.85 108.15,636.83"/>
        <lane id=":J1_0_11_1" index="1" speed="13.90" length="21.10" shape="105.71,615.63 104.95,636.83"/>
    </edge>
    <edge id=":J1_0_13" function="internal">
        <lane id=":J1_0_13_0" index="0" speed="9.65" length="4.24" shape="105.71,615.63 104.85,619.78"/>
    </edge>
    <edge id=":J1_0_14" function="internal">
        <lane id=":J1_0_14_0" index="0" speed="3.65" length="1.44" shape="105.71,615.63 104.83,616.77"/>
    </edge>
    <edge id=":J1_0_24" function="internal">
        <lane id=":J1_0_24_0" index="0" speed="9.65" length="15.75" shape="104.85,619.78 104.59,621.05 102.09,624.93 98.21,627.25 92.95,628.03"/>
    </edge>
    <edge id=":J1_0_25" function="internal">
        <lane id=":J1_0_25_0" index="0" speed="3.65" length="3.23" shape="104.83,616.77 104.00,617.11 103.23,616.66 102.52,615.40"/>
    </edge>
    <edge id=":J1_0_15" function="internal">
        <lane id=":J1_0_15_0" index="0" speed="7.04" length="10.19" shape="92.95,621.63 95.57,621.23 97.51,620.02 98.76,618.00 99.33,615.18"/>
    </edge>
    <edge id=":J1_0_16" function="internal">
        <lane id=":J1_0_16_0" index="0" speed="13.90" length="21.31" shape="92.95,621.63 114.24,621.51"/>
        <lane id=":J1_0_16_1" index="1" speed="13.90" length="21.31" shape="92.95,624.83 114.27,624.71"/>
    </edge>
    <edge id=":J1_0_18" function="internal">
        <lane id=":J1_0_18_0" index="0" speed="9.26" length="4.83" shape="92.95,624.83 97.73,625.51"/>
    </edge>
    <edge id=":J1_0_19" function="internal">
        <lane id=":J1_0_19_0" index="0" speed="3.65" length="1.44" shape="92.95,624.83 94.15,625.63"/>
    </edge>
    <edge id=":J1_0_26" function="internal">
        <lane id=":J1_0_26_0" index="0" speed="9.26" length="14.53" shape="97.73,625.51 98.20,625.58 101.95,627.83 104.20,631.58 104.95,636.83"/>
    </edge>
    <edge id=":J1_0_27" function="internal">
        <lane id=":J1_0_27_0" index="0" speed="3.65" length="3.23" shape="94.15,625.63 94.55,626.43 94.15,627.23 92.95,628.03"/>
    </edge>
    <edge id=":J1_1_0" function="internal">
        <lane id=":J1_1_0_0" index="0" speed="6.48" length="9.03" shape="769.05,629.44 768.70,626.99 767.65,625.24 765.89,624.21 763.43,623.89"/>
    </edge>
    <edge id=":J1_1_1" function="internal">
        <lane id=":J1_1_1_0" index="0" speed="13.90" length="21.05" shape="769.05,629.44 769.24,608.37"/>
        <lane id=":J1_1_1_1" index="1" speed="13.90" length="21.05" shape="772.25,629.44 772.44,608.43"/>
    </edge>
    <edge id=":J1_1_3" function="internal">
        <lane id=":J1_1_3_0" index="0" speed="9.29" length="5.20" shape="772.25,629.44 772.99,624.30"/>
    </edge>
    <edge id=":J1_1_4" function="internal">
        <lane id=":J1_1_4_0" index="0" speed="3.65" length="1.44" shape="772.25,629.44 773.05,628.24"/>
    </edge>
    <edge id=":J1_1_20" function="internal">
        <lane id=":J1_1_20_0" index="0" speed="9.29" length="14.31" shape="772.99,624.30 773.01,624.16 775.28,620.39 779.07,618.12 784.37,617.37"/>
    </edge>
    <edge id=":J1_1_21" function="internal">
        <lane id=":J1_1_21_0" index="0" speed="3.65" length="3.23" shape="773.05,628.24 773.85,627.84 774.65,628.24 775.45,629.44"/>
    </edge>
    <edge id=":J1_1_5" function="internal">
        <lane id=":J1_1_5_0" index="0" speed="6.56" length="9.18" shape="784.37,623.77 781.87,624.12 780.08,625.19 779.01,626.96 778.65,629.44"/>
    </edge>
    <edge id=":J1_1_6" function="internal">
        <lane id=":J1_1_6_0" index="0" speed="13.90" length="20.95" shape="784.37,623.77 763.43,623.89"/>
        <lane id=":J1_1_6_1" index="1" speed="13.90" length="20.95" shape="784.37,620.57 763.40,620.69"/>
    </edge>
    <edge id=":J1_1_8" function="internal">
        <lane id=":J1_1_8_0" index="0" speed="9.23" length="4.82" shape="784.37,620.57 779.60,619.89"/>
    </edge>
    <edge id=":J1_1_9" function="internal">
        <lane id=":J1_1_9_0" index="0" speed="3.65" length="1.44" shape="784.37,620.57 783.17,619.77"/>
    </edge>
    <edge id=":J1_1_22" function="internal">
        <lane id=":J1_1_22_0" index="0" speed="9.23" length="14.67" shape="779.60,619.89 779.07,619.81 775.31,617.53 773.10,613.74 772.44,608.43"/>
    </edge>
    <edge id=":J1_1_23" function="internal">
        <lane id=":J1_1_23_0" index="0" speed="3.65" length="3.23" shape="783.17,619.77 782.77,618.97 783.17,618.17 784.37,617.37"/>
    </edge>
    <edge id=":J1_1_10" function="internal">
        <lane id=":J1_1_10_0" index="0" speed="6.47" length="9.03" shape="778.84,608.54 779.15,611.00 780.17,612.76 781.91,613.82 784.37,614.17"/>
    </edge>
    <edge id=":J1_1_11" function="internal">
        <lane id=":J1_1_11_0" index="0" speed="13.90" length="20.93" shape="778.84,608.54 778.65,629.44"/>
        <lane id=":J1_1_11_1" index="1" speed="13.90" length="20.93" shape="775.64,608.48 775.45,629.44"/>
    </edge>
    <edge id=":J1_1_13" function="internal">
        <lane id=":J1_1_13_0" index="0" speed="9.41" length="4.76" shape="775.64,608.48 774.89,613.18"/>
    </edge>
    <edge id=":J1_1_14" function="internal">
        <lane id=":J1_1_14_0" index="0" speed="3.65" length="1.44" shape="775.64,608.48 774.82,609.67"/>
    </edge>
    <edge id=":J1_1_24" function="internal">
        <lane id=":J1_1_24_0" index="0" speed="9.41" length="14.83" shape="774.89,613.18 774.79,613.77 772.47,617.57 768.67,619.87 763.40,620.69"/>
    </edge>
    <edge id=":J1_1_25" function="internal">
        <lane id=":J1_1_25_0" index="0" speed="3.65" length="3.23" shape="774.82,609.67 774.01,610.05 773.22,609.64 772.44,608.43"/>
    </edge>
    <edge id=":J1_1_15" function="internal">
        <lane id=":J1_1_15_0" index="0" speed="6.72" length="9.48" shape="763.33,614.29 765.87,613.89 767.71,612.77 768.83,610.93 769.24,608.37"/>
    </edge>
    <edge id=":J1_1_16" function="internal">
        <lane id=":J1_1_16_0" index="0" speed="13.90" length="21.02" shape="763.33,614.29 784.37,614.17"/>
        <lane id=":J1_1_16_1" index="1" speed="13.90" length="21.02" shape="763.36,617.49 784.37,617.37"/>
    </edge>
    <edge id=":J1_1_18" function="internal">
        <lane id=":J1_1_18_0" index="0" speed="9.24" length="5.17" shape="763.36,617.49 768.48,618.16"/>
    </edge>
    <edge id=":J1_1_19" function="internal">
        <lane id=":J1_1_19_0" index="0" speed="3.65" length="1.44" shape="763.36,617.49 764.57,618.27"/>
    </edge>
    <edge id=":J1_1_26" function="internal">
        <lane id=":J1_1_26_0" index="0" speed="9.24" length="14.27" shape="768.48,618.16 768.65,618.18 772.43,620.41 774.69,624.16 775.45,629.44"/>
    </edge>
    <edge id=":J1_1_27" function="internal">
        <lane id=":J1_1_27_0" index="0" speed="3.65" length="3.23" shape="764.57,618.27 764.98,619.07 764.59,619.87 763.40,620.69"/>
    </edge>
    <edge id=":N0_0" function="internal">
        <lane id=":N0_0_0" index="0" speed="3.65" length="4.67" shape="138.40,0.00 139.20,-1.20 140.00,-1.60 140.80,-1.20 141.60,0.00"/>
    </edge>
    <edge id=":N1_0" function="internal">
        <lane id=":N1_0_0" index="0" speed="3.65" length="4.67" shape="781.50,0.00 782.30,-1.20 783.10,-1.60 783.90,-1.20 784.70,0.00"/>
    </edge>
    <edge id=":S0_0" function="internal">
        <lane id=":S0_0_0" index="0" speed="3.65" length="4.67" shape="104.95,738.00 104.15,739.20 103.35,739.60 102.55,739.20 101.75,738.00"/>
    </edge>
    <edge id=":S1_0" function="internal">
        <lane id=":S1_0_0" index="0" speed="3.65" length="4.67" shape="775.45,738.00 774.65,739.20 773.85,739.60 773.05,739.20 772.25,738.00"/>
    </edge>
    <edge id=":W0_0" function="internal">
        <lane id=":W0_0_0" index="0" speed="3.65" length="4.67" shape="0.00,106.18 -1.20,105.38 -1.60,104.58 -1.20,103.78 0.00,102.98"/>
    </edge>
    <edge id=":W1_0" function="internal">
        <lane id=":W1_0_0" index="0" speed="3.65" length="4.67" shape="0.00,628.03 -1.20,627.23 -1.60,626.43 -1.20,625.63 0.00,624.83"/>
    </edge>

    <edge id="E0_to_J0_1" from="E0" to="J0_1" priority="-1">
        <lane id="E0_to_J0_1_0" index="0" speed="13.90" length="106.50" shape="900.00,111.73 793.50,111.73"/>
        <lane id="E0_to_J0_1_1" index="1" speed="13.90" length="106.50" shape="900.00,108.53 793.50,108.53"/>
    </edge>
    <edge id="E1_to_J1_1" from="E1" to="J1_1" priority="-1">
        <lane id="E1_to_J1_1_0" index="0" speed="13.90" length="115.63" shape="900.00,623.77 784.37,623.77"/>
        <lane id="E1_to_J1_1_1" index="1" speed="13.90" length="115.63" shape="900.00,620.57 784.37,620.57"/>
    </edge>
    <edge id="J0_0_to_J0_1" from="J0_0" to="J0_1" priority="-1">
        <lane id="J0_0_to_J0_1_0" index="0" speed="13.90" length="622.23" shape="150.39,99.82 772.62,102.09"/>
        <lane id="J0_0_to_J0_1_1" index="1" speed="13.90" length="622.23" shape="150.38,103.02 772.61,105.29"/>
    </edge>
    <edge id="J0_0_to_J1_0" from="J0_0" to="J1_0" priority="-1">
        <lane id="J0_0_to_J1_0_0" index="0" speed="13.90" length="501.33" shape="144.03,115.75 108.90,615.85"/>
        <lane id="J0_0_to_J1_0_1" index="1" speed="13.90" length="501.33" shape="140.83,115.53 105.71,615.63"/>
    </edge>
    <edge id="J0_0_to_N0" from="J0_0" to="N0" priority="-1">
        <lane id="J0_0_to_N0_0" index="0" speed="13.90" length="94.18" shape="135.20,94.18 135.20,0.00"/>
        <lane id="J0_0_to_N0_1" index="1" speed="13.90" length="94.18" shape="138.40,94.18 138.40,0.00"/>
    </edge>
    <edge id="J0_0_to_W0" from="J0_0" to="W0" priority="-1">
        <lane id="J0_0_to_W0_0" index="0" speed="13.90" length="129.13" shape="129.13,109.38 0.00,109.38"/>
        <lane id="J0_0_to_W0_1" index="1" speed="13.90" length="129.13" shape="129.13,106.18 0.00,106.18"/>
    </edge>
    <edge id="J0_1_to_E0" from="J0_1" to="E0" priority="-1">
        <lane id="J0_1_to_E0_0" index="0" speed="13.90" length="106.50" shape="793.50,102.13 900.00,102.13"/>
        <lane id="J0_1_to_E0_1" index="1" speed="13.90" length="106.50" shape="793.50,105.33 900.00,105.33"/>
    </edge>
    <edge id="J0_1_to_J0_0" from="J0_1" to="J0_0" priority="-1">
        <lane id="J0_1_to_J0_0_0" index="0" speed="13.90" length="622.23" shape="772.59,111.69 150.36,109.42"/>
        <lane id="J0_1_to_J0_0_1" index="1" speed="13.90" length="622.23" shape="772.60,108.49 150.37,106.22"/>
    </edge>
    <edge id="J0_1_to_J1_1" from="J0_1" to="J1_1" priority="-1">
        <lane id="J0_1_to_J1_1_0" index="0" speed="13.90" length="491.11" shape="787.71,117.51 778.84,608.54"/>
        <lane id="J0_1_to_J1_1_1" index="1" speed="13.90" length="491.11" shape="784.51,117.45 775.64,608.48"/>
    </edge>
    <edge id="J0_1_to_N1" from="J0_1" to="N1" priority="-1">
        <lane id="J0_1_to_N1_0" index="0" speed="13.90" length="96.51" shape="778.30,96.51 778.30,0.00"/>
        <lane id="J0_1_to_N1_1" index="1" speed="13.90" length="96.51" shape="781.50,96.51 781.50,0.00"/>
    </edge>
    <edge id="J1_0_to_J0_0" from="J1_0" to="J0_0" priority="-1">
        <lane id="J1_0_to_J0_0_0" index="0" speed="13.90" length="501.33" shape="99.33,615.18 134.45,115.08"/>
        <lane id="J1_0_to_J0_0_1" index="1" speed="13.90" length="501.33" shape="102.52,615.40 137.64,115.31"/>
    </edge>
    <edge id="J1_0_to_J1_1" from="J1_0" to="J1_1" priority="-1">
        <lane id="J1_0_to_J1_1_0" index="0" speed="13.90" length="649.13" shape="114.24,621.51 763.33,614.29"/>
        <lane id="J1_0_to_J1_1_1" index="1" speed="13.90" length="649.13" shape="114.27,624.71 763.36,617.49"/>
    </edge>
    <edge id="J1_0_to_S0" from="J1_0" to="S0" priority="-1">
        <lane id="J1_0_to_S0_0" index="0" speed="13.90" length="101.17" shape="108.15,636.83 108.15,738.00"/>
        <lane id="J1_0_to_S0_1" index="1" speed="13.90" length="101.17" shape="104.95,636.83 104.95,738.00"/>
    </edge>
    <edge id="J1_0_to_W1" from="J1_0" to="W1" priority="-1">
        <lane id="J1_0_to_W1_0" index="0" speed="13.90" length="92.95" shape="92.95,631.23 0.00,631.23"/>
        <lane id="J1_0_to_W1_1" index="1" speed="13.90" length="92.95" shape="92.95,628.03 0.00,628.03"/>
    </edge>
    <edge id="J1_1_to_E1" from="J1_1" to="E1" priority="-1">
        <lane id="J1_1_to_E1_0" index="0" speed="13.90" length="115.63" shape="784.37,614.17 900.00,614.17"/>
        <lane id="J1_1_to_E1_1" index="1" speed="13.90" length="115.63" shape="784.37,617.37 900.00,617.37"/>
    </edge>
    <edge id="J1_1_to_J0_1" from="J1_1" to="J0_1" priority="-1">
        <lane id="J1_1_to_J0_1_0" index="0" speed="13.90" length="491.11" shape="769.24,608.37 778.11,117.33"/>
        <lane id="J1_1_to_J0_1_1" index="1" speed="13.90" length="491.11" shape="772.44,608.43 781.31,117.39"/>
    </edge>
    <edge id="J1_1_to_J1_0" from="J1_1" to="J1_0" priority="-1">
        <lane id="J1_1_to_J1_0_0" index="0" speed="13.90" length="649.13" shape="763.43,623.89 114.34,631.11"/>
        <lane id="J1_1_to_J1_0_1" index="1" speed="13.90" length="649.13" shape="763.40,620.69 114.31,627.91"/>
    </edge>
    <edge id="J1_1_to_S1" from="J1_1" to="S1" priority="-1">
        <lane id="J1_1_to_S1_0" index="0" speed="13.90" length="108.56" shape="778.65,629.44 778.65,738.00"/>
        <lane id="J1_1_to_S1_1" index="1" speed="13.90" length="108.56" shape="775.45,629.44 775.45,738.00"/>
    </edge>
    <edge id="N0_to_J0_0" from="N0" to="J0_0" priority="-1">
        <lane id="N0_to_J0_0_0" index="0" speed="13.90" length="94.18" shape="144.80,0.00 144.80,94.18"/>
        <lane id="N0_to_J0_0_1" index="1" speed="13.90" length="94.18" shape="141.60,0.00 141.60,94.18"/>
    </edge>
    <edge id="N1_to_J0_1" from="N1" to="J0_1" priority="-1">
        <lane id="N1_to_J0_1_0" index="0" speed="13.90" length="96.51" shape="787.90,0.00 787.90,96.51"/>
        <lane id="N1_to_J0_1_1" index="1" speed="13.90" length="96.51" shape="784.70,0.00 784.70,96.51"/>
    </edge>
    <edge id="S0_to_J1_0" from="S0" to="J1_0" priority="-1">
        <lane id="S0_to_J1_0_0" index="0" speed="13.90" length="101.17" shape="98.55,738.00 98.55,636.83"/>
        <lane id="S0_to_J1_0_1" index="1" speed="13.90" length="101.17" shape="101.75,738.00 101.75,636.83"/>
    </edge>
    <edge id="S1_to_J1_1" from="S1" to="J1_1" priority="-1">
        <lane id="S1_to_J1_1_0" index="0" speed="13.90" length="108.56" shape="769.05,738.00 769.05,629.44"/>
        <lane id="S1_to_J1_1_1" index="1" speed="13.90" length="108.56" shape="772.25,738.00 772.25,629.44"/>
    </edge>
    <edge id="W0_to_J0_0" from="W0" to="J0_0" priority="-1">
        <lane id="W0_to_J0_0_0" index="0" speed="13.90" length="129.13" shape="0.00,99.78 129.13,99.78"/>
        <lane id="W0_to_J0_0_1" index="1" speed="13.90" length="129.13" shape="0.00,102.98 129.13,102.98"/>
    </edge>
    <edge id="W1_to_J1_0" from="W1" to="J1_0" priority="-1">
        <lane id="W1_to_J1_0_0" index="0" speed="13.90" length="92.95" shape="0.00,621.63 92.95,621.63"/>
        <lane id="W1_to_J1_0_1" index="1" speed="13.90" length="92.95" shape="0.00,624.83 92.95,624.83"/>
    </edge>

    <tlLogic id="J0_0" type="static" programID="0" offset="0">
        <phase duration="42" state="GGGggrrrrrGGGggrrrrr"/>
        <phase duration="3"  state="yyyyyrrrrryyyyyrrrrr"/>
        <phase duration="42" state="rrrrrGGGggrrrrrGGGgg"/>
        <phase duration="3"  state="rrrrryyyyyrrrrryyyyy"/>
    </tlLogic>
    <tlLogic id="J0_1" type="static" programID="0" offset="0">
        <phase duration="42" state="GGGggrrrrrGGGggrrrrr"/>
        <phase duration="3"  state="yyyyyrrrrryyyyyrrrrr"/>
        <phase duration="42" state="rrrrrGGGggrrrrrGGGgg"/>
        <phase duration="3"  state="rrrrryyyyyrrrrryyyyy"/>
    </tlLogic>
    <tlLogic id="J1_0" type="static" programID="0" offset="0">
        <phase duration="42" state="rrrrrGGGggrrrrrGGGgg"/>
        <phase duration="3"  state="rrrrryyyyyrrrrryyyyy"/>
        <phase duration="42" state="GGGggrrrrrGGGggrrrrr"/>
        <phase duration="3"  state="yyyyyrrrrryyyyyrrrrr"/>
    </tlLogic>
    <tlLogic id="J1_1" type="static" programID="0" offset="0">
        <phase duration="42" state="rrrrrGGGggrrrrrGGGgg"/>
        <phase duration="3"  state="rrrrryyyyyrrrrryyyyy"/>
        <phase duration="42" state="GGGggrrrrrGGGggrrrrr"/>
        <phase duration="3"  state="yyyyyrrrrryyyyyrrrrr"/>
    </tlLogic>
