<configuration>
    <input>
        <net-file value="grid.net.xml"/>
        <route-files value="grid.rou.xml"/>
    </input>
    <time>
        <begin value="0"/>
        <end value="150"/>
    </time>
</configuration>