<?xml version="1.0" encoding="UTF-8"?>

<!-- generated on 2026-04-15T16:26:37.031636+05:30 by Eclipse SUMO netconvert 1.26.0
<netconvertConfiguration xmlns:xsi="http://www.w3.org/2001/XMLSchema-instance" xsi:noNamespaceSchemaLocation="http://sumo.dlr.de/xsd/netconvertConfiguration.xsd">

    <input>
        <node-files value="C:\Users\santhosh\OneDrive\Desktop\trafiic pro\reports\image_dashboard\scalability_assets\2x2\grid.nod.xml"/>
        <edge-files value="C:\Users\santhosh\OneDrive\Desktop\trafiic pro\reports\image_dashboard\scalability_assets\2x2\grid.edg.xml"/>
    </input>

    <output>
        <output-file value="C:\Users\santhosh\OneDrive\Desktop\trafiic pro\reports\image_dashboard\scalability_assets\2x2\grid.net.xml"/>
    </output>

    <building_defaults>
        <default.lanewidth value="1.5"/>
    </building_defaults>

    <junctions>
        <junctions.corner-detail value="0"/>
    </junctions>

</netconvertConfiguration>
-->

<net version="1.20" limitTurnSpeed="5.50" xmlns:xsi="http://www.w3.org/2001/XMLSchema-instance" xsi:noNamespaceSchemaLocation="http://sumo.dlr.de/xsd/net_file.xsd">

    <location netOffset="0.00,0.00" convBoundary="0.00,0.00,200.00,200.00" origBoundary="0.00,0.00,200.00,200.00" projParameter="!"/>

    <edge id=":J0_0_0" function="internal">
        <lane id=":J0_0_0_0" index="0" speed="6.13" length="8.47" width="1.50" shape="-2.25,3.00 -1.92,0.70 -0.94,-0.94 0.70,-1.92 3.00,-2.25"/>
        <lane id=":J0_0_0_1" index="1" speed="5.24" length="6.05" width="1.50" shape="-0.75,3.00 -0.52,1.36 0.19,0.19 1.36,-0.52 3.00,-0.75"/>
    </edge>
    <edge id=":J0_0_2" function="internal">
        <lane id=":J0_0_2_0" index="0" speed="2.67" length="1.21" width="1.50" shape="3.00,2.25 2.67,2.30 2.44,2.44 2.30,2.67 2.25,3.00"/>
        <lane id=":J0_0_2_1" index="1" speed="4.16" length="3.63" width="1.50" shape="3.00,0.75 2.02,0.89 1.31,1.31 0.89,2.02 0.75,3.00"/>
    </edge>
    <edge id=":J0_1_0" function="internal">
        <lane id=":J0_1_0_0" index="0" speed="2.67" length="1.21" width="1.50" shape="197.75,3.00 197.70,2.67 197.56,2.44 197.33,2.30 197.00,2.25"/>
        <lane id=":J0_1_0_1" index="1" speed="4.16" length="3.63" width="1.50" shape="199.25,3.00 199.11,2.02 198.69,1.31 197.98,0.89 197.00,0.75"/>
    </edge>
    <edge id=":J0_1_2" function="internal">
        <lane id=":J0_1_2_0" index="0" speed="6.13" length="8.47" width="1.50" shape="197.00,-2.25 199.30,-1.92 200.94,-0.94 201.92,0.70 202.25,3.00"/>
        <lane id=":J0_1_2_1" index="1" speed="5.24" length="6.05" width="1.50" shape="197.00,-0.75 198.64,-0.52 199.81,0.19 200.52,1.36 200.75,3.00"/>
    </edge>
    <edge id=":J1_0_0" function="internal">
        <lane id=":J1_0_0_0" index="0" speed="6.13" length="8.47" width="1.50" shape="3.00,202.25 0.70,201.92 -0.94,200.94 -1.92,199.30 -2.25,197.00"/>
        <lane id=":J1_0_0_1" index="1" speed="5.24" length="6.05" width="1.50" shape="3.00,200.75 1.36,200.52 0.19,199.81 -0.52,198.64 -0.75,197.00"/>
    </edge>
    <edge id=":J1_0_2" function="internal">
        <lane id=":J1_0_2_0" index="0" speed="2.67" length="1.21" width="1.50" shape="2.25,197.00 2.30,197.33 2.44,197.56 2.67,197.70 3.00,197.75"/>
        <lane id=":J1_0_2_1" index="1" speed="4.16" length="3.63" width="1.50" shape="0.75,197.00 0.89,197.98 1.31,198.69 2.02,199.11 3.00,199.25"/>
    </edge>
    <edge id=":J1_1_0" function="internal">
        <lane id=":J1_1_0_0" index="0" speed="6.13" length="8.47" width="1.50" shape="202.25,197.00 201.92,199.30 200.94,200.94 199.30,201.92 197.00,202.25"/>
        <lane id=":J1_1_0_1" index="1" speed="5.24" length="6.05" width="1.50" shape="200.75,197.00 200.52,198.64 199.81,199.81 198.64,200.52 197.00,200.75"/>
    </edge>
    <edge id=":J1_1_2" function="internal">
        <lane id=":J1_1_2_0" index="0" speed="2.67" length="1.21" width="1.50" shape="197.00,197.75 197.33,197.70 197.56,197.56 197.70,197.33 197.75,197.00"/>
        <lane id=":J1_1_2_1" index="1" speed="4.16" length="3.63" width="1.50" shape="197.00,199.25 197.98,199.11 198.69,198.69 199.11,197.98 199.25,197.00"/>
    </edge>

    <edge id="J0_0_to_J0_1" from="J0_0" to="J0_1" priority="-1">
        <lane id="J0_0_to_J0_1_0" index="0" speed="13.90" length="194.00" width="1.50" shape="3.00,-2.25 197.00,-2.25"/>
        <lane id="J0_0_to_J0_1_1" index="1" speed="13.90" length="194.00" width="1.50" shape="3.00,-0.75 197.00,-0.75"/>
    </edge>
    <edge id="J0_0_to_J1_0" from="J0_0" to="J1_0" priority="-1">
        <lane id="J0_0_to_J1_0_0" index="0" speed="13.90" length="194.00" width="1.50" shape="2.25,3.00 2.25,197.00"/>
        <lane id="J0_0_to_J1_0_1" index="1" speed="13.90" length="194.00" width="1.50" shape="0.75,3.00 0.75,197.00"/>
    </edge>
    <edge id="J0_1_to_J0_0" from="J0_1" to="J0_0" priority="-1">
        <lane id="J0_1_to_J0_0_0" index="0" speed="13.90" length="194.00" width="1.50" shape="197.00,2.25 3.00,2.25"/>
        <lane id="J0_1_to_J0_0_1" index="1" speed="13.90" length="194.00" width="1.50" shape="197.00,0.75 3.00,0.75"/>
    </edge>
    <edge id="J0_1_to_J1_1" from="J0_1" to="J1_1" priority="-1">
        <lane id="J0_1_to_J1_1_0" index="0" speed="13.90" length="194.00" width="1.50" shape="202.25,3.00 202.25,197.00"/>
        <lane id="J0_1_to_J1_1_1" index="1" speed="13.90" length="194.00" width="1.50" shape="200.75,3.00 200.75,197.00"/>
    </edge>
    <edge id="J1_0_to_J0_0" from="J1_0" to="J0_0" priority="-1">
        <lane id="J1_0_to_J0_0_0" index="0" speed="13.90" length="194.00" width="1.50" shape="-2.25,197.00 -2.25,3.00"/>
        <lane id="J1_0_to_J0_0_1" index="1" speed="13.90" length="194.00" width="1.50" shape="-0.75,197.00 -0.75,3.00"/>
    </edge>
    <edge id="J1_0_to_J1_1" from="J1_0" to="J1_1" priority="-1">
        <lane id="J1_0_to_J1_1_0" index="0" speed="13.90" length="194.00" width="1.50" shape="3.00,197.75 197.00,197.75"/>
        <lane id="J1_0_to_J1_1_1" index="1" speed="13.90" length="194.00" width="1.50" shape="3.00,199.25 197.00,199.25"/>
    </edge>
    <edge id="J1_1_to_J0_1" from="J1_1" to="J0_1" priority="-1">
        <lane id="J1_1_to_J0_1_0" index="0" speed="13.90" length="194.00" width="1.50" shape="197.75,197.00 197.75,3.00"/>
        <lane id="J1_1_to_J0_1_1" index="1" speed="13.90" length="194.00" width="1.50" shape="199.25,197.00 199.25,3.00"/>
    </edge>
    <edge id="J1_1_to_J1_0" from="J1_1" to="J1_0" priority="-1">
        <lane id="J1_1_to_J1_0_0" index="0" speed="13.90" length="194.00" width="1.50" shape="197.00,202.25 3.00,202.25"/>
        <lane id="J1_1_to_J1_0_1" index="1" speed="13.90" length="194.00" width="1.50" shape="197.00,200.75 3.00,200.75"/>
    </edge>

    <tlLogic id="J0_0" type="static" programID="0" offset="0">
        <phase duration="90" state="GGGG"/>
    </tlLogic>
    <tlLogic id="J0_1" type="static" programID="0" offset="0">
        <phase duration="90" state="GGGG"/>
    </tlLogic>
    <tlLogic id="J1_0" type="static" programID="0" offset="0">
        <phase duration="90" state="GGGG"/>
    </tlLogic>
    <tlLogic id="J1_1" type="static" programID="0" offset="0">
        <phase duration="90" state="GGGG"/>
    </tlLogic>

    <junction id="J0_0" type="traffic_light" x="0.00" y="0.00" incLanes="J1_0_to_J0_0_0 J1_0_to_J0_0_1 J0_1_to_J0_0_0 J0_1_to_J0_0_1" intLanes=":J0_0_0_0 :J0_0_0_1 :J0_0_2_0 :J0_0_2_1" shape="-3.00,3.00 3.00,3.00 3.00,-3.00">
        <request index="0" response="0000" foes="0000" cont="0"/>
        <request index="1" response="0000" foes="0000" cont="0"/>
        <request index="2" response="0000" foes="0000" cont="0"/>
        <request index="3" response="0000" foes="0000" cont="0"/>
    </junction>
    <junction id="J0_1" type="traffic_light" x="200.00" y="0.00" incLanes="J1_1_to_J0_1_0 J1_1_to_J0_1_1 J0_0_to_J0_1_0 J0_0_to_J0_1_1" intLanes=":J0_1_0_0 :J0_1_0_1 :J0_1_2_0 :J0_1_2_1" shape="197.00,3.00 203.00,3.00 197.00,-3.00">
        <request index="0" response="0000" foes="0000" cont="0"/>
        <request index="1" response="0000" foes="0000" cont="0"/>
        <request index="2" response="0000" foes="0000" cont="0"/>
        <request index="3" response="0000" foes="0000" cont="0"/>
    </junction>
    <junction id="J1_0" type="traffic_light" x="0.00" y="200.00" incLanes="J1_1_to_J1_0_0 J1_1_to_J1_0_1 J0_0_to_J1_0_0 J0_0_to_J1_0_1" intLanes=":J1_0_0_0 :J1_0_0_1 :J1_0_2_0 :J1_0_2_1" shape="3.00,203.00 3.00,197.00 -3.00,197.00">
        <request index="0" response="0000" foes="0000" cont="0"/>
        <request index="1" response="0000" foes="0000" cont="0"/>
        <request index="2" response="0000" foes="0000" cont="0"/>
        <request index="3" response="0000" foes="0000" cont="0"/>
    </junction>
    <junction id="J1_1" type="traffic_light" x="200.00" y="200.00" incLanes="J0_1_to_J1_1_0 J0_1_to_J1_1_1 J1_0_to_J1_1_0 J1_0_to_J1_1_1" intLanes=":J1_1_0_0 :J1_1_0_1 :J1_1_2_0 :J1_1_2_1" shape="203.00,197.00 197.00,197.00 197.00,203.00">
        <request index="0" response="0000" foes="0000" cont="0"/>
        <request index="1" response="0000" foes="0000" cont="0"/>
        <request index="2" response="0000" foes="0000" cont="0"/>
        <request index="3" response="0000" foes="0000" cont="0"/>
    </junction>

    <connection from="J0_0_to_J0_1" to="J0_1_to_J1_1" fromLane="0" toLane="0" via=":J0_1_2_0" tl="J0_1" linkIndex="2" dir="l" state="O"/>
    <connection from="J0_0_to_J0_1" to="J0_1_to_J1_1" fromLane="1" toLane="1" via=":J0_1_2_1" tl="J0_1" linkIndex="3" dir="l" state="O"/>
    <connection from="J0_0_to_J1_0" to="J1_0_to_J1_1" fromLane="0" toLane="0" via=":J1_0_2_0" tl="J1_0" linkIndex="2" dir="r" state="O"/>
    <connection from="J0_0_to_J1_0" to="J1_0_to_J1_1" fromLane="1" toLane="1" via=":J1_0_2_1" tl="J1_0" linkIndex="3" dir="r" state="O"/>
    <connection from="J0_1_to_J0_0" to="J0_0_to_J1_0" fromLane="0" toLane="0" via=":J0_0_2_0" tl="J0_0" linkIndex="2" dir="r" state="O"/>
    <connection from="J0_1_to_J0_0" to="J0_0_to_J1_0" fromLane="1" toLane="1" via=":J0_0_2_1" tl="J0_0" linkIndex="3" dir="r" state="O"/>
    <connection from="J0_1_to_J1_1" to="J1_1_to_J1_0" fromLane="0" toLane="0" via=":J1_1_0_0" tl="J1_1" linkIndex="0" dir="l" state="O"/>
    <connection from="J0_1_to_J1_1" to="J1_1_to_J1_0" fromLane="1" toLane="1" via=":J1_1_0_1" tl="J1_1" linkIndex="1" dir="l" state="O"/>
    <connection from="J1_0_to_J0_0" to="J0_0_to_J0_1" fromLane="0" toLane="0" via=":J0_0_0_0" tl="J0_0" linkIndex="0" dir="l" state="O"/>
    <connection from="J1_0_to_J0_0" to="J0_0_to_J0_1" fromLane="1" toLane="1" via=":J0_0_0_1" tl="J0_0" linkIndex="1" dir="l" state="O"/>
    <connection from="J1_0_to_J1_1" to="J1_1_to_J0_1" fromLane="0" toLane="0" via=":J1_1_2_0" tl="J1_1" linkIndex="2" dir="r" state="O"/>
    <connection from="J1_0_to_J1_1" to="J1_1_to_J0_1" fromLane="1" toLane="1" via=":J1_1_2_1" tl="J1_1" linkIndex="3" dir="r" state="O"/>
    <connection from="J1_1_to_J0_1" to="J0_1_to_J0_0" fromLane="0" toLane="0" via=":J0_1_0_0" tl="J0_1" linkIndex="0" dir="r" state="O"/>
    <connection from="J1_1_to_J0_1" to="J0_1_to_J0_0" fromLane="1" toLane="1" via=":J0_1_0_1" tl="J0_1" linkIndex="1" dir="r" state="O"/>
    <connection from="J1_1_to_J1_0" to="J1_0_to_J0_0" fromLane="0" toLane="0" via=":J1_0_0_0" tl="J1_0" linkIndex="0" dir="l" state="O"/>
    <connection from="J1_1_to_J1_0" to="J1_0_to_J0_0" fromLane="1" toLane="1" via=":J1_0_0_1" tl="J1_0" linkIndex="1" dir="l" state="O"/>

    <connection from=":J0_0_0" to="J0_0_to_J0_1" fromLane="0" toLane="0" dir="l" state="M"/>
    <connection from=":J0_0_0" to="J0_0_to_J0_1" fromLane="1" toLane="1" dir="l" state="M"/>
    <connection from=":J0_0_2" to="J0_0_to_J1_0" fromLane="0" toLane="0" dir="r" state="M"/>
    <connection from=":J0_0_2" to="J0_0_to_J1_0" fromLane="1" toLane="1" dir="r" state="M"/>
    <connection from=":J0_1_0" to="J0_1_to_J0_0" fromLane="0" toLane="0" dir="r" state="M"/>
    <connection from=":J0_1_0" to="J0_1_to_J0_0" fromLane="1" toLane="1" dir="r" state="M"/>
    <connection from=":J0_1_2" to="J0_1_to_J1_1" fromLane="0" toLane="0" dir="l" state="M"/>
    <connection from=":J0_1_2" to="J0_1_to_J1_1" fromLane="1" toLane="1" dir="l" state="M"/>
    <connection from=":J1_0_0" to="J1_0_to_J0_0" fromLane="0" toLane="0" dir="l" state="M"/>
    <connection from=":J1_0_0" to="J1_0_to_J0_0" fromLane="1" toLane="1" dir="l" state="M"/>
    <connection from=":J1_0_2" to="J1_0_to_J1_1" fromLane="0" toLane="0" dir="r" state="M"/>
    <connection from=":J1_0_2" to="J1_0_to_J1_1" fromLane="1" toLane="1" dir="r" state="M"/>
    <connection from=":J1_1_0" to="J1_1_to_J1_0" fromLane="0" toLane="0" dir="l" state="M"/>
    <connection from=":J1_1_0" to="J1_1_to_J1_0" fromLane="1" toLane="1" dir="l" state="M"/>
    <connection from=":J1_1_2" to="J1_1_to_J0_1" fromLane="0" toLane="0" dir="r" state="M"/>
    <connection from=":J1_1_2" to="J1_1_to_J0_1" fromLane="1" toLane="1" dir="r" state="M"/>

</net>
