<?xml version="1.0" encoding="UTF-8"?>

<!-- generated on 2026-04-11T23:05:27.685205+05:30 by Eclipse SUMO netconvert 1.26.0
<netconvertConfiguration xmlns:xsi="http://www.w3.org/2001/XMLSchema-instance" xsi:noNamespaceSchemaLocation="http://sumo.dlr.de/xsd/netconvertConfiguration.xsd">

    <input>
        <node-files value="C:\Users\santhosh\OneDrive\Desktop\trafiic pro\web_runs\20260411_230524_716185\area.nod.xml"/>
        <edge-files value="C:\Users\santhosh\OneDrive\Desktop\trafiic pro\web_runs\20260411_230524_716185\area.edg.xml"/>
    </input>

    <output>
        <output-file value="C:\Users\santhosh\OneDrive\Desktop\trafiic pro\web_runs\20260411_230524_716185\area.net.xml"/>
    </output>

    <building_defaults>
        <default.lanewidth value="1.8"/>
    </building_defaults>

    <junctions>
        <junctions.corner-detail value="0"/>
    </junctions>

</netconvertConfiguration>
-->

<net version="1.20" limitTurnSpeed="5.50" xmlns:xsi="http://www.w3.org/2001/XMLSchema-instance" xsi:noNamespaceSchemaLocation="http://sumo.dlr.de/xsd/net_file.xsd">

    <location netOffset="0.00,0.00" convBoundary="0.00,0.00,2400.00,2080.00" origBoundary="0.00,0.00,2400.00,2080.00" projParameter="!"/>

    <edge id=":E0_0" function="internal">
        <lane id=":E0_0_0" index="0" speed="2.74" length="2.63" width="1.80" shape="2400.02,1039.10 2400.68,1039.56 2400.90,1040.02 2400.67,1040.46 2399.98,1040.90"/>
    </edge>
    <edge id=":J0_0_0" function="internal">
        <lane id=":J0_0_0_0" index="0" speed="5.95" length="7.91" width="1.80" shape="1192.22,1025.49 1191.90,1023.34 1190.97,1021.81 1189.43,1020.91 1187.28,1020.64"/>
    </edge>
    <edge id=":J0_0_1" function="internal">
        <lane id=":J0_0_1_0" index="0" speed="13.90" length="11.64" width="1.80" shape="1192.22,1025.49 1192.22,1013.85"/>
    </edge>
    <edge id=":J0_0_2" function="internal">
        <lane id=":J0_0_2_0" index="0" speed="6.87" length="5.27" width="1.80" shape="1192.22,1025.49 1192.62,1022.54 1193.80,1020.57"/>
    </edge>
    <edge id=":J0_0_3" function="internal">
        <lane id=":J0_0_3_0" index="0" speed="2.74" length="2.26" width="1.80" shape="1192.22,1025.49 1192.66,1024.81 1193.11,1024.58 1193.56,1024.80 1193.81,1025.17"/>
    </edge>
    <edge id=":J0_0_16" function="internal">
        <lane id=":J0_0_16_0" index="0" speed="6.87" length="5.57" width="1.80" shape="1193.80,1020.57 1193.88,1020.44 1195.98,1019.21 1198.94,1018.84"/>
    </edge>
    <edge id=":J0_0_17" function="internal">
        <lane id=":J0_0_17_0" index="0" speed="2.74" length="0.37" width="1.80" shape="1193.81,1025.17 1194.02,1025.48"/>
    </edge>
    <edge id=":J0_0_4" function="internal">
        <lane id=":J0_0_4_0" index="0" speed="5.92" length="7.89" width="1.80" shape="1198.91,1020.64 1196.76,1020.91 1195.22,1021.81 1194.31,1023.33 1194.02,1025.48"/>
    </edge>
    <edge id=":J0_0_5" function="internal">
        <lane id=":J0_0_5_0" index="0" speed="13.90" length="11.63" width="1.80" shape="1198.91,1020.64 1187.28,1020.64"/>
    </edge>
    <edge id=":J0_0_6" function="internal">
        <lane id=":J0_0_6_0" index="0" speed="6.96" length="5.20" width="1.80" shape="1198.91,1020.64 1195.96,1020.17 1194.07,1019.01"/>
    </edge>
    <edge id=":J0_0_7" function="internal">
        <lane id=":J0_0_7_0" index="0" speed="2.74" length="2.21" width="1.80" shape="1198.91,1020.64 1198.24,1020.18 1198.02,1019.72 1198.25,1019.28 1198.58,1019.07"/>
    </edge>
    <edge id=":J0_0_18" function="internal">
        <lane id=":J0_0_18_0" index="0" speed="6.96" length="5.64" width="1.80" shape="1194.07,1019.01 1193.87,1018.89 1192.62,1016.78 1192.22,1013.85"/>
    </edge>
    <edge id=":J0_0_19" function="internal">
        <lane id=":J0_0_19_0" index="0" speed="2.74" length="0.42" width="1.80" shape="1198.58,1019.07 1198.94,1018.84"/>
    </edge>
    <edge id=":J0_0_8" function="internal">
        <lane id=":J0_0_8_0" index="0" speed="6.01" length="7.96" width="1.80" shape="1194.02,1013.86 1194.31,1016.01 1195.23,1017.55 1196.77,1018.50 1198.94,1018.84"/>
    </edge>
    <edge id=":J0_0_9" function="internal">
        <lane id=":J0_0_9_0" index="0" speed="13.90" length="11.61" width="1.80" shape="1194.02,1013.86 1194.02,1025.48"/>
    </edge>
    <edge id=":J0_0_10" function="internal">
        <lane id=":J0_0_10_0" index="0" speed="6.99" length="5.22" width="1.80" shape="1194.02,1013.86 1193.58,1016.79 1192.41,1018.73"/>
    </edge>
    <edge id=":J0_0_11" function="internal">
        <lane id=":J0_0_11_0" index="0" speed="2.74" length="2.23" width="1.80" shape="1194.02,1013.86 1193.56,1014.54 1193.11,1014.76 1192.66,1014.53 1192.44,1014.19"/>
    </edge>
    <edge id=":J0_0_20" function="internal">
        <lane id=":J0_0_20_0" index="0" speed="6.99" length="5.62" width="1.80" shape="1192.41,1018.73 1192.31,1018.89 1190.21,1020.17 1187.28,1020.64"/>
    </edge>
    <edge id=":J0_0_21" function="internal">
        <lane id=":J0_0_21_0" index="0" speed="2.74" length="0.40" width="1.80" shape="1192.44,1014.19 1192.22,1013.85"/>
    </edge>
    <edge id=":J0_0_12" function="internal">
        <lane id=":J0_0_12_0" index="0" speed="6.06" length="7.99" width="1.80" shape="1187.25,1018.84 1189.41,1018.50 1190.96,1017.55 1191.90,1016.00 1192.22,1013.85"/>
    </edge>
    <edge id=":J0_0_13" function="internal">
        <lane id=":J0_0_13_0" index="0" speed="13.90" length="11.69" width="1.80" shape="1187.25,1018.84 1198.94,1018.84"/>
    </edge>
    <edge id=":J0_0_14" function="internal">
        <lane id=":J0_0_14_0" index="0" speed="6.90" length="5.41" width="1.80" shape="1187.25,1018.84 1190.19,1019.21 1192.30,1020.44"/>
    </edge>
    <edge id=":J0_0_15" function="internal">
        <lane id=":J0_0_15_0" index="0" speed="2.74" length="2.28" width="1.80" shape="1187.25,1018.84 1187.93,1019.28 1188.16,1019.72 1187.94,1020.18 1187.57,1020.44"/>
    </edge>
    <edge id=":J0_0_22" function="internal">
        <lane id=":J0_0_22_0" index="0" speed="6.90" length="5.43" width="1.80" shape="1192.30,1020.44 1193.58,1022.53 1194.02,1025.48"/>
    </edge>
    <edge id=":J0_0_23" function="internal">
        <lane id=":J0_0_23_0" index="0" speed="2.74" length="0.35" width="1.80" shape="1187.57,1020.44 1187.28,1020.64"/>
    </edge>
    <edge id=":N0_0" function="internal">
        <lane id=":N0_0_0" index="0" speed="2.74" length="2.63" width="1.80" shape="1200.90,2079.99 1200.45,2080.67 1200.01,2080.90 1199.55,2080.68 1199.10,2080.01"/>
    </edge>
    <edge id=":S0_0" function="internal">
        <lane id=":S0_0_0" index="0" speed="2.74" length="2.63" width="1.80" shape="1199.10,-0.01 1199.55,-0.68 1200.01,-0.90 1200.45,-0.67 1200.90,0.01"/>
    </edge>
    <edge id=":W0_0" function="internal">
        <lane id=":W0_0_0" index="0" speed="2.74" length="2.63" width="1.80" shape="0.02,1040.90 -0.67,1040.46 -0.90,1040.02 -0.68,1039.56 -0.02,1039.10"/>
    </edge>

    <edge id="E0_to_J0_0" from="E0" to="J0_0" priority="-1">
        <lane id="E0_to_J0_0_0" index="0" speed="13.90" length="1201.25" width="1.80" shape="2399.98,1040.90 1198.91,1020.64"/>
    </edge>
    <edge id="J0_0_to_E0" from="J0_0" to="E0" priority="-1">
        <lane id="J0_0_to_E0_0" index="0" speed="13.90" length="1201.25" width="1.80" shape="1198.94,1018.84 2400.02,1039.10"/>
    </edge>
    <edge id="J0_0_to_N0" from="J0_0" to="N0" priority="-1">
        <lane id="J0_0_to_N0_0" index="0" speed="13.90" length="1054.54" width="1.80" shape="1194.02,1025.48 1200.90,2079.99"/>
    </edge>
    <edge id="J0_0_to_S0" from="J0_0" to="S0" priority="-1">
        <lane id="J0_0_to_S0_0" index="0" speed="13.90" length="1013.88" width="1.80" shape="1192.22,1013.85 1199.10,-0.01"/>
    </edge>
    <edge id="J0_0_to_W0" from="J0_0" to="W0" priority="-1">
        <lane id="J0_0_to_W0_0" index="0" speed="13.90" length="1187.43" width="1.80" shape="1187.28,1020.64 0.02,1040.90"/>
    </edge>
    <edge id="N0_to_J0_0" from="N0" to="J0_0" priority="-1">
        <lane id="N0_to_J0_0_0" index="0" speed="13.90" length="1054.54" width="1.80" shape="1199.10,2080.01 1192.22,1025.49"/>
    </edge>
    <edge id="S0_to_J0_0" from="S0" to="J0_0" priority="-1">
        <lane id="S0_to_J0_0_0" index="0" speed="13.90" length="1013.88" width="1.80" shape="1200.90,0.01 1194.02,1013.86"/>
    </edge>
    <edge id="W0_to_J0_0" from="W0" to="J0_0" priority="-1">
        <lane id="W0_to_J0_0_0" index="0" speed="13.90" length="1187.43" width="1.80" shape="-0.02,1039.10 1187.25,1018.84"/>
    </edge>

    <tlLogic id="J0_0" type="static" programID="0" offset="0">
        <phase duration="42" state="GGggrrrrGGggrrrr"/>
        <phase duration="3"  state="yyyyrrrryyyyrrrr"/>
        <phase duration="42" state="rrrrGGggrrrrGGgg"/>
        <phase duration="3"  state="rrrryyyyrrrryyyy"/>
    </tlLogic>

    <junction id="E0" type="priority" x="2400.00" y="1040.00" incLanes="J0_0_to_E0_0" intLanes=":E0_0_0" shape="2400.00,1040.00 2400.03,1038.20 2400.00,1040.00">
        <request index="0" response="0" foes="0" cont="0"/>
    </junction>
    <junction id="J0_0" type="traffic_light" x="1193.08" y="1019.64" incLanes="N0_to_J0_0_0 E0_to_J0_0_0 S0_to_J0_0_0 W0_to_J0_0_0" intLanes=":J0_0_0_0 :J0_0_1_0 :J0_0_16_0 :J0_0_17_0 :J0_0_4_0 :J0_0_5_0 :J0_0_18_0 :J0_0_19_0 :J0_0_8_0 :J0_0_9_0 :J0_0_20_0 :J0_0_21_0 :J0_0_12_0 :J0_0_13_0 :J0_0_22_0 :J0_0_23_0" shape="1191.32,1025.49 1194.92,1025.47 1198.89,1021.54 1198.95,1017.94 1194.92,1013.87 1191.32,1013.85 1187.23,1017.94 1187.29,1021.54">
        <request index="0"  response="0000000000000000" foes="1000010000100000" cont="0"/>
        <request index="1"  response="0100000001000000" foes="0111110001100000" cont="0"/>
        <request index="2"  response="0100001101000000" foes="0110001111100000" cont="1"/>
        <request index="3"  response="0100001000010000" foes="0100001000010000" cont="1"/>
        <request index="4"  response="0000001000000000" foes="0100001000001000" cont="0"/>
        <request index="5"  response="0000011000000111" foes="1100011000000111" cont="0"/>
        <request index="6"  response="0011011000000110" foes="0011111000000110" cont="1"/>
        <request index="7"  response="0010000100000100" foes="0010000100000100" cont="1"/>
        <request index="8"  response="0000000000000000" foes="0010000010000100" cont="0"/>
        <request index="9"  response="0100000001000000" foes="0110000001111100" cont="0"/>
        <request index="10" response="0100000001000011" foes="1110000001100011" cont="1"/>
        <request index="11" response="0001000001000010" foes="0001000001000010" cont="1"/>
        <request index="12" response="0000000000000010" foes="0000100001000010" cont="0"/>
        <request index="13" response="0000011100000110" foes="0000011111000110" cont="0"/>
        <request index="14" response="0000011000110110" foes="0000011000111110" cont="1"/>
        <request index="15" response="0000010000100001" foes="0000010000100001" cont="1"/>
    </junction>
    <junction id="N0" type="priority" x="1200.00" y="2080.00" incLanes="J0_0_to_N0_0" intLanes=":N0_0_0" shape="1200.00,2080.00 1201.80,2079.99 1200.00,2080.00">
        <request index="0" response="0" foes="0" cont="0"/>
    </junction>
    <junction id="S0" type="priority" x="1200.00" y="0.00" incLanes="J0_0_to_S0_0" intLanes=":S0_0_0" shape="1200.00,0.00 1198.20,-0.01 1200.00,0.00">
        <request index="0" response="0" foes="0" cont="0"/>
    </junction>
    <junction id="W0" type="priority" x="0.00" y="1040.00" incLanes="J0_0_to_W0_0" intLanes=":W0_0_0" shape="-0.00,1040.00 0.03,1041.80 -0.00,1040.00">
        <request index="0" response="0" foes="0" cont="0"/>
    </junction>

    <junction id=":J0_0_16_0" type="internal" x="1193.80" y="1020.57" incLanes=":J0_0_2_0 S0_to_J0_0_0" intLanes=":J0_0_5_0 :J0_0_6_0 :J0_0_7_0 :J0_0_8_0 :J0_0_9_0 :J0_0_13_0 :J0_0_14_0"/>
    <junction id=":J0_0_17_0" type="internal" x="1193.81" y="1025.17" incLanes=":J0_0_3_0 E0_to_J0_0_0 S0_to_J0_0_0 W0_to_J0_0_0" intLanes=":J0_0_4_0 :J0_0_9_0 :J0_0_14_0"/>
    <junction id=":J0_0_18_0" type="internal" x="1194.07" y="1019.01" incLanes=":J0_0_6_0 W0_to_J0_0_0" intLanes=":J0_0_1_0 :J0_0_2_0 :J0_0_9_0 :J0_0_10_0 :J0_0_11_0 :J0_0_12_0 :J0_0_13_0"/>
    <junction id=":J0_0_19_0" type="internal" x="1198.58" y="1019.07" incLanes=":J0_0_7_0 N0_to_J0_0_0 S0_to_J0_0_0 W0_to_J0_0_0" intLanes=":J0_0_2_0 :J0_0_8_0 :J0_0_13_0"/>
    <junction id=":J0_0_20_0" type="internal" x="1192.41" y="1018.73" incLanes=":J0_0_10_0 N0_to_J0_0_0" intLanes=":J0_0_0_0 :J0_0_1_0 :J0_0_5_0 :J0_0_6_0 :J0_0_13_0 :J0_0_14_0 :J0_0_15_0"/>
    <junction id=":J0_0_21_0" type="internal" x="1192.44" y="1014.19" incLanes=":J0_0_11_0 E0_to_J0_0_0 N0_to_J0_0_0 W0_to_J0_0_0" intLanes=":J0_0_1_0 :J0_0_6_0 :J0_0_12_0"/>
    <junction id=":J0_0_22_0" type="internal" x="1192.30" y="1020.44" incLanes=":J0_0_14_0 E0_to_J0_0_0" intLanes=":J0_0_1_0 :J0_0_2_0 :J0_0_3_0 :J0_0_4_0 :J0_0_5_0 :J0_0_9_0 :J0_0_10_0"/>
    <junction id=":J0_0_23_0" type="internal" x="1187.57" y="1020.44" incLanes=":J0_0_15_0 E0_to_J0_0_0 N0_to_J0_0_0 S0_to_J0_0_0" intLanes=":J0_0_0_0 :J0_0_5_0 :J0_0_10_0"/>

    <connection from="E0_to_J0_0" to="J0_0_to_N0" fromLane="0" toLane="0" via=":J0_0_4_0" tl="J0_0" linkIndex="4" dir="r" state="o"/>
    <connection from="E0_to_J0_0" to="J0_0_to_W0" fromLane="0" toLane="0" via=":J0_0_5_0" tl="J0_0" linkIndex="5" dir="s" state="o"/>
    <connection from="E0_to_J0_0" to="J0_0_to_S0" fromLane="0" toLane="0" via=":J0_0_6_0" tl="J0_0" linkIndex="6" dir="l" state="o"/>
    <connection from="E0_to_J0_0" to="J0_0_to_E0" fromLane="0" toLane="0" via=":J0_0_7_0" tl="J0_0" linkIndex="7" dir="t" state="o"/>
    <connection from="J0_0_to_E0" to="E0_to_J0_0" fromLane="0" toLane="0" via=":E0_0_0" dir="t" state="M"/>
    <connection from="J0_0_to_N0" to="N0_to_J0_0" fromLane="0" toLane="0" via=":N0_0_0" dir="t" state="M"/>
    <connection from="J0_0_to_S0" to="S0_to_J0_0" fromLane="0" toLane="0" via=":S0_0_0" dir="t" state="M"/>
    <connection from="J0_0_to_W0" to="W0_to_J0_0" fromLane="0" toLane="0" via=":W0_0_0" dir="t" state="M"/>
    <connection from="N0_to_J0_0" to="J0_0_to_W0" fromLane="0" toLane="0" via=":J0_0_0_0" tl="J0_0" linkIndex="0" dir="r" state="O"/>
    <connection from="N0_to_J0_0" to="J0_0_to_S0" fromLane="0" toLane="0" via=":J0_0_1_0" tl="J0_0" linkIndex="1" dir="s" state="O"/>
    <connection from="N0_to_J0_0" to="J0_0_to_E0" fromLane="0" toLane="0" via=":J0_0_2_0" tl="J0_0" linkIndex="2" dir="l" state="o"/>
    <connection from="N0_to_J0_0" to="J0_0_to_N0" fromLane="0" toLane="0" via=":J0_0_3_0" tl="J0_0" linkIndex="3" dir="t" state="o"/>
    <connection from="S0_to_J0_0" to="J0_0_to_E0" fromLane="0" toLane="0" via=":J0_0_8_0" tl="J0_0" linkIndex="8" dir="r" state="O"/>
    <connection from="S0_to_J0_0" to="J0_0_to_N0" fromLane="0" toLane="0" via=":J0_0_9_0" tl="J0_0" linkIndex="9" dir="s" state="O"/>
    <connection from="S0_to_J0_0" to="J0_0_to_W0" fromLane="0" toLane="0" via=":J0_0_10_0" tl="J0_0" linkIndex="10" dir="l" state="o"/>
    <connection from="S0_to_J0_0" to="J0_0_to_S0" fromLane="0" toLane="0" via=":J0_0_11_0" tl="J0_0" linkIndex="11" dir="t" state="o"/>
    <connection from="W0_to_J0_0" to="J0_0_to_S0" fromLane="0" toLane="0" via=":J0_0_12_0" tl="J0_0" linkIndex="12" dir="r" state="o"/>
    <connection from="W0_to_J0_0" to="J0_0_to_E0" fromLane="0" toLane="0" via=":J0_0_13_0" tl="J0_0" linkIndex="13" dir="s" state="o"/>
    <connection from="W0_to_J0_0" to="J0_0_to_N0" fromLane="0" toLane="0" via=":J0_0_14_0" tl="J0_0" linkIndex="14" dir="l" state="o"/>
    <connection from="W0_to_J0_0" to="J0_0_to_W0" fromLane="0" toLane="0" via=":J0_0_15_0" tl="J0_0" linkIndex="15" dir="t" state="o"/>

    <connection from=":E0_0" to="E0_to_J0_0" fromLane="0" toLane="0" dir="t" state="M"/>
    <connection from=":J0_0_0" to="J0_0_to_W0" fromLane="0" toLane="0" dir="r" state="M"/>
    <connection from=":J0_0_1" to="J0_0_to_S0" fromLane="0" toLane="0" dir="s" state="M"/>
    <connection from=":J0_0_2" to="J0_0_to_E0" fromLane="0" toLane="0" via=":J0_0_16_0" dir="l" state="m"/>
    <connection from=":J0_0_16" to="J0_0_to_E0" fromLane="0" toLane="0" dir="l" state="M"/>
    <connection from=":J0_0_3" to="J0_0_to_N0" fromLane="0" toLane="0" via=":J0_0_17_0" dir="t" state="m"/>
    <connection from=":J0_0_17" to="J0_0_to_N0" fromLane="0" toLane="0" dir="t" state="M"/>
    <connection from=":J0_0_4" to="J0_0_to_N0" fromLane="0" toLane="0" dir="r" state="M"/>
    <connection from=":J0_0_5" to="J0_0_to_W0" fromLane="0" toLane="0" dir="s" state="M"/>
    <connection from=":J0_0_6" to="J0_0_to_S0" fromLane="0" toLane="0" via=":J0_0_18_0" dir="l" state="m"/>
    <connection from=":J0_0_18" to="J0_0_to_S0" fromLane="0" toLane="0" dir="l" state="M"/>
    <connection from=":J0_0_7" to="J0_0_to_E0" fromLane="0" toLane="0" via=":J0_0_19_0" dir="t" state="m"/>
    <connection from=":J0_0_19" to="J0_0_to_E0" fromLane="0" toLane="0" dir="t" state="M"/>
    <connection from=":J0_0_8" to="J0_0_to_E0" fromLane="0" toLane="0" dir="r" state="M"/>
    <connection from=":J0_0_9" to="J0_0_to_N0" fromLane="0" toLane="0" dir="s" state="M"/>
    <connection from=":J0_0_10" to="J0_0_to_W0" fromLane="0" toLane="0" via=":J0_0_20_0" dir="l" state="m"/>
    <connection from=":J0_0_20" to="J0_0_to_W0" fromLane="0" toLane="0" dir="l" state="M"/>
    <connection from=":J0_0_11" to="J0_0_to_S0" fromLane="0" toLane="0" via=":J0_0_21_0" dir="t" state="m"/>
    <connection from=":J0_0_21" to="J0_0_to_S0" fromLane="0" toLane="0" dir="t" state="M"/>
    <connection from=":J0_0_12" to="J0_0_to_S0" fromLane="0" toLane="0" dir="r" state="M"/>
    <connection from=":J0_0_13" to="J0_0_to_E0" fromLane="0" toLane="0" dir="s" state="M"/>
    <connection from=":J0_0_14" to="J0_0_to_N0" fromLane="0" toLane="0" via=":J0_0_22_0" dir="l" state="m"/>
    <connection from=":J0_0_22" to="J0_0_to_N0" fromLane="0" toLane="0" dir="l" state="M"/>
    <connection from=":J0_0_15" to="J0_0_to_W0" fromLane="0" toLane="0" via=":J0_0_23_0" dir="t" state="m"/>
    <connection from=":J0_0_23" to="J0_0_to_W0" fromLane="0" toLane="0" dir="t" state="M"/>
    <connection from=":N0_0" to="N0_to_J0_0" fromLane="0" toLane="0" dir="t" state="M"/>
    <connection from=":S0_0" to="S0_to_J0_0" fromLane="0" toLane="0" dir="t" state="M"/>
    <connection from=":W0_0" to="W0_to_J0_0" fromLane="0" toLane="0" dir="t" state="M"/>

</net>
