<nodes>
    <node id="J0_0" x="1193.08" y="1019.64" type="traffic_light"/>
    <node id="W0" x="0" y="1040.0" type="priority"/>
    <node id="E0" x="2400.0" y="1040.0" type="priority"/>
    <node id="N0" x="1200.0" y="2080.0" type="priority"/>
    <node id="S0" x="1200.0" y="0" type="priority"/>
</nodes>