<?xml version="1.0" encoding="UTF-8"?>

<!-- generated on 2026-04-11T15:34:57.627902+05:30 by Eclipse SUMO netconvert 1.26.0
<netconvertConfiguration xmlns:xsi="http://www.w3.org/2001/XMLSchema-instance" xsi:noNamespaceSchemaLocation="http://sumo.dlr.de/xsd/netconvertConfiguration.xsd">

    <input>
        <node-files value="C:\Users\santhosh\OneDrive\Desktop\trafiic pro\web_runs\20260411_153457_349027\area.nod.xml"/>
        <edge-files value="C:\Users\santhosh\OneDrive\Desktop\trafiic pro\web_runs\20260411_153457_349027\area.edg.xml"/>
    </input>

    <output>
        <output-file value="C:\Users\santhosh\OneDrive\Desktop\trafiic pro\web_runs\20260411_153457_349027\area.net.xml"/>
    </output>

</netconvertConfiguration>
-->

<net version="1.20" junctionCornerDetail="5" limitTurnSpeed="5.50" xmlns:xsi="http://www.w3.org/2001/XMLSchema-instance" xsi:noNamespaceSchemaLocation="http://sumo.dlr.de/xsd/net_file.xsd">

    <location netOffset="0.00,0.00" convBoundary="0.00,0.00,900.00,544.00" origBoundary="0.00,0.00,900.00,544.00" projParameter="!"/>

    <edge id=":E0_0" function="internal">
        <lane id=":E0_0_0" index="0" speed="3.65" length="4.67" shape="900.00,135.98 901.20,136.78 901.60,137.58 901.20,138.38 900.00,139.18"/>
    </edge>
    <edge id=":E1_0" function="internal">
        <lane id=":E1_0_0" index="0" speed="3.65" length="4.67" shape="900.00,286.73 901.20,287.53 901.60,288.33 901.20,289.13 900.00,289.93"/>
    </edge>
    <edge id=":E2_0" function="internal">
        <lane id=":E2_0_0" index="0" speed="3.65" length="4.67" shape="900.00,436.72 901.20,437.52 901.60,438.32 901.20,439.12 900.00,439.92"/>
    </edge>
    <edge id=":J0_0_0" function="internal">
        <lane id=":J0_0_0_0" index="0" speed="6.90" length="14.28" shape="153.03,122.26 148.57,118.87 145.19,117.39 142.88,117.82 141.66,120.16"/>
    </edge>
    <edge id=":J0_0_1" function="internal">
        <lane id=":J0_0_1_0" index="0" speed="12.95" length="29.76" shape="153.03,122.26 147.36,117.48 141.50,113.36 135.18,110.47 128.13,109.38"/>
        <lane id=":J0_0_1_1" index="1" speed="12.95" length="29.76" shape="155.13,119.84 149.13,114.94 142.55,110.55 135.51,107.39 128.13,106.18"/>
    </edge>
    <edge id=":J0_0_3" function="internal">
        <lane id=":J0_0_3_0" index="0" speed="12.95" length="31.43" shape="155.13,119.84 147.81,112.79 142.58,106.16 139.45,99.96 138.40,94.18"/>
    </edge>
    <edge id=":J0_0_4" function="internal">
        <lane id=":J0_0_4_0" index="0" speed="8.02" length="23.71" shape="155.13,119.84 151.59,114.50 151.79,109.06 155.25,104.87 161.45,103.23"/>
    </edge>
    <edge id=":J0_0_5" function="internal">
        <lane id=":J0_0_5_0" index="0" speed="3.65" length="2.34" shape="155.13,119.84 154.75,118.45 154.97,117.59"/>
    </edge>
    <edge id=":J0_0_30" function="internal">
        <lane id=":J0_0_30_0" index="0" speed="3.65" length="2.34" shape="154.97,117.59 155.80,117.25 157.23,117.43"/>
    </edge>
    <edge id=":J0_0_6" function="internal">
        <lane id=":J0_0_6_0" index="0" speed="5.46" length="10.04" shape="161.38,109.63 158.11,109.93 156.69,110.93 157.09,112.62 159.33,115.01"/>
    </edge>
    <edge id=":J0_0_7" function="internal">
        <lane id=":J0_0_7_0" index="0" speed="11.15" length="24.31" shape="161.38,109.63 153.59,110.21 147.71,112.16 143.73,115.47 141.66,120.16"/>
    </edge>
    <edge id=":J0_0_8" function="internal">
        <lane id=":J0_0_8_0" index="0" speed="13.90" length="33.27" shape="161.38,109.63 128.13,109.38"/>
        <lane id=":J0_0_8_1" index="1" speed="13.90" length="33.27" shape="161.41,106.43 128.13,106.18"/>
    </edge>
    <edge id=":J0_0_10" function="internal">
        <lane id=":J0_0_10_0" index="0" speed="11.26" length="8.99" shape="161.41,106.43 152.46,105.66"/>
    </edge>
    <edge id=":J0_0_11" function="internal">
        <lane id=":J0_0_11_0" index="0" speed="3.65" length="1.44" shape="161.41,106.43 160.22,105.61"/>
    </edge>
    <edge id=":J0_0_31" function="internal">
        <lane id=":J0_0_31_0" index="0" speed="11.26" length="19.88" shape="152.46,105.66 151.35,105.56 144.15,103.23 139.84,99.44 138.40,94.18"/>
    </edge>
    <edge id=":J0_0_32" function="internal">
        <lane id=":J0_0_32_0" index="0" speed="3.65" length="3.23" shape="160.22,105.61 159.83,104.81 160.24,104.01 161.45,103.23"/>
    </edge>
    <edge id=":J0_0_12" function="internal">
        <lane id=":J0_0_12_0" index="0" speed="9.21" length="18.96" shape="144.80,94.18 145.84,96.67 148.97,98.47 154.19,99.59 161.49,100.03"/>
    </edge>
    <edge id=":J0_0_13" function="internal">
        <lane id=":J0_0_13_0" index="0" speed="12.95" length="25.99" shape="144.80,94.18 145.71,98.56 148.43,103.49 152.97,108.98 159.33,115.01"/>
    </edge>
    <edge id=":J0_0_14" function="internal">
        <lane id=":J0_0_14_0" index="0" speed="13.90" length="25.89" shape="144.80,94.18 144.60,101.08 143.99,107.25 143.01,113.37 141.66,120.16"/>
        <lane id=":J0_0_14_1" index="1" speed="13.90" length="25.89" shape="141.60,94.18 141.41,100.98 140.83,106.92 139.87,112.82 138.52,119.50"/>
    </edge>
    <edge id=":J0_0_16" function="internal">
        <lane id=":J0_0_16_0" index="0" speed="9.53" length="5.18" shape="141.60,94.18 140.78,99.30"/>
    </edge>
    <edge id=":J0_0_17" function="internal">
        <lane id=":J0_0_17_0" index="0" speed="3.65" length="1.44" shape="141.60,94.18 140.80,95.38"/>
    </edge>
    <edge id=":J0_0_33" function="internal">
        <lane id=":J0_0_33_0" index="0" speed="9.53" length="15.37" shape="140.78,99.30 140.76,99.43 138.23,103.18 134.02,105.43 128.13,106.18"/>
    </edge>
    <edge id=":J0_0_34" function="internal">
        <lane id=":J0_0_34_0" index="0" speed="3.65" length="3.23" shape="140.80,95.38 140.00,95.78 139.20,95.38 138.40,94.18"/>
    </edge>
    <edge id=":J0_0_18" function="internal">
        <lane id=":J0_0_18_0" index="0" speed="6.89" length="10.25" shape="128.13,99.78 131.22,99.43 133.43,98.38 134.76,96.63 135.20,94.18"/>
    </edge>
    <edge id=":J0_0_19" function="internal">
        <lane id=":J0_0_19_0" index="0" speed="13.90" length="33.34" shape="128.13,99.78 161.49,100.03"/>
        <lane id=":J0_0_19_1" index="1" speed="13.90" length="33.34" shape="128.13,102.98 161.45,103.23"/>
    </edge>
    <edge id=":J0_0_21" function="internal">
        <lane id=":J0_0_21_0" index="0" speed="12.95" length="4.36" shape="128.13,102.98 132.42,103.72"/>
    </edge>
    <edge id=":J0_0_22" function="internal">
        <lane id=":J0_0_22_0" index="0" speed="9.45" length="4.27" shape="128.13,102.98 132.33,103.72"/>
    </edge>
    <edge id=":J0_0_23" function="internal">
        <lane id=":J0_0_23_0" index="0" speed="3.65" length="1.44" shape="128.13,102.98 129.33,103.78"/>
    </edge>
    <edge id=":J0_0_35" function="internal">
        <lane id=":J0_0_35_0" index="0" speed="12.95" length="28.70" shape="132.42,103.72 135.83,104.32 143.60,107.74 150.90,112.40 157.23,117.43"/>
    </edge>
    <edge id=":J0_0_36" function="internal">
        <lane id=":J0_0_36_0" index="0" speed="9.45" length="19.11" shape="132.33,103.72 133.97,104.01 137.65,107.11 139.17,112.27 138.52,119.50"/>
    </edge>
    <edge id=":J0_0_37" function="internal">
        <lane id=":J0_0_37_0" index="0" speed="3.65" length="3.23" shape="129.33,103.78 129.73,104.58 129.33,105.38 128.13,106.18"/>
    </edge>
    <edge id=":J0_0_24" function="internal">
        <lane id=":J0_0_24_0" index="0" speed="6.79" length="11.49" shape="132.26,118.20 132.69,114.34 132.15,111.58 130.62,109.93 128.13,109.38"/>
    </edge>
    <edge id=":J0_0_25" function="internal">
        <lane id=":J0_0_25_0" index="0" speed="13.90" length="24.58" shape="132.26,118.20 133.58,111.72 134.49,106.27 135.03,100.77 135.20,94.18"/>
        <lane id=":J0_0_25_1" index="1" speed="13.90" length="24.58" shape="135.39,118.85 136.72,112.27 137.66,106.59 138.22,100.88 138.40,94.18"/>
    </edge>
    <edge id=":J0_0_27" function="internal">
        <lane id=":J0_0_27_0" index="0" speed="12.96" length="3.71" shape="135.39,118.85 136.81,115.42"/>
    </edge>
    <edge id=":J0_0_28" function="internal">
        <lane id=":J0_0_28_0" index="0" speed="9.42" length="2.80" shape="135.39,118.85 136.64,116.34"/>
    </edge>
    <edge id=":J0_0_29" function="internal">
        <lane id=":J0_0_29_0" index="0" speed="3.65" length="1.44" shape="135.39,118.85 136.42,117.84"/>
    </edge>
    <edge id=":J0_0_38" function="internal">
        <lane id=":J0_0_38_0" index="0" speed="12.96" length="29.47" shape="136.81,115.42 138.26,111.92 143.56,107.00 151.29,104.11 161.45,103.23"/>
    </edge>
    <edge id=":J0_0_39" function="internal">
        <lane id=":J0_0_39_0" index="0" speed="9.42" length="25.06" shape="136.64,116.34 138.56,112.49 143.80,110.69 150.29,112.61 157.23,117.43"/>
    </edge>
    <edge id=":J0_0_40" function="internal">
        <lane id=":J0_0_40_0" index="0" speed="3.65" length="3.23" shape="136.42,117.84 137.28,117.61 137.99,118.16 138.52,119.50"/>
    </edge>
    <edge id=":J0_1_0" function="internal">
        <lane id=":J0_1_0_0" index="0" speed="6.40" length="9.04" shape="353.26,112.85 350.77,112.94 348.95,113.81 347.79,115.47 347.30,117.92"/>
    </edge>
    <edge id=":J0_1_1" function="internal">
        <lane id=":J0_1_1_0" index="0" speed="13.90" length="21.11" shape="353.26,112.85 347.21,112.22 342.83,111.87 338.44,111.70 332.36,111.61"/>
        <lane id=":J0_1_1_1" index="1" speed="13.90" length="21.11" shape="353.60,109.67 347.50,109.04 343.02,108.68 338.53,108.50 332.39,108.41"/>
    </edge>
    <edge id=":J0_1_3" function="internal">
        <lane id=":J0_1_3_0" index="0" speed="9.79" length="5.07" shape="353.60,109.67 348.69,108.45"/>
    </edge>
    <edge id=":J0_1_4" function="internal">
        <lane id=":J0_1_4_0" index="0" speed="3.65" length="1.44" shape="353.60,109.67 352.50,108.74"/>
    </edge>
    <edge id=":J0_1_20" function="internal">
        <lane id=":J0_1_20_0" index="0" speed="9.79" length="14.92" shape="348.69,108.45 348.31,108.35 344.53,105.71 342.26,101.75 341.50,96.46"/>
    </edge>
    <edge id=":J0_1_21" function="internal">
        <lane id=":J0_1_21_0" index="0" speed="3.65" length="3.23" shape="352.50,108.74 352.18,107.91 352.67,107.15 353.95,106.49"/>
    </edge>
    <edge id=":J0_1_5" function="internal">
        <lane id=":J0_1_5_0" index="0" speed="7.22" length="10.44" shape="347.90,96.46 348.30,99.19 349.50,101.25 351.49,102.62 354.29,103.30"/>
    </edge>
    <edge id=":J0_1_6" function="internal">
        <lane id=":J0_1_6_0" index="0" speed="13.90" length="21.38" shape="347.90,96.46 347.30,117.92"/>
        <lane id=":J0_1_6_1" index="1" speed="13.90" length="21.38" shape="344.70,96.46 344.10,117.74"/>
    </edge>
    <edge id=":J0_1_8" function="internal">
        <lane id=":J0_1_8_0" index="0" speed="9.28" length="5.34" shape="344.70,96.46 343.93,101.74"/>
    </edge>
    <edge id=":J0_1_9" function="internal">
        <lane id=":J0_1_9_0" index="0" speed="3.65" length="1.44" shape="344.70,96.46 343.90,97.66"/>
    </edge>
    <edge id=":J0_1_22" function="internal">
        <lane id=":J0_1_22_0" index="0" speed="9.28" length="14.28" shape="343.93,101.74 341.62,105.49 337.78,107.71 332.39,108.41"/>
    </edge>
    <edge id=":J0_1_23" function="internal">
        <lane id=":J0_1_23_0" index="0" speed="3.65" length="3.23" shape="343.90,97.66 343.10,98.06 342.30,97.66 341.50,96.46"/>
    </edge>
    <edge id=":J0_1_10" function="internal">
        <lane id=":J0_1_10_0" index="0" speed="6.54" length="9.21" shape="332.47,102.01 335.02,101.69 336.84,100.65 337.94,98.91 338.30,96.46"/>
    </edge>
    <edge id=":J0_1_11" function="internal">
        <lane id=":J0_1_11_0" index="0" speed="13.90" length="21.72" shape="332.47,102.01 338.70,102.11 343.40,102.30 348.09,102.67 354.29,103.30"/>
        <lane id=":J0_1_11_1" index="1" speed="13.90" length="21.72" shape="332.43,105.21 338.61,105.30 343.21,105.49 347.80,105.85 353.95,106.49"/>
    </edge>
    <edge id=":J0_1_13" function="internal">
        <lane id=":J0_1_13_0" index="0" speed="9.20" length="5.11" shape="332.43,105.21 337.48,105.99"/>
    </edge>
    <edge id=":J0_1_14" function="internal">
        <lane id=":J0_1_14_0" index="0" speed="3.65" length="1.44" shape="332.43,105.21 333.62,106.02"/>
    </edge>
    <edge id=":J0_1_24" function="internal">
        <lane id=":J0_1_24_0" index="0" speed="9.20" length="14.62" shape="337.48,105.99 337.79,106.04 341.53,108.41 343.63,112.31 344.10,117.74"/>
    </edge>
    <edge id=":J0_1_25" function="internal">
        <lane id=":J0_1_25_0" index="0" speed="3.65" length="3.23" shape="333.62,106.02 334.01,106.82 333.60,107.62 332.39,108.41"/>
    </edge>
    <edge id=":J0_1_15" function="internal">
        <lane id=":J0_1_15_0" index="0" speed="6.43" length="9.07" shape="337.71,117.38 337.49,114.88 336.53,113.08 334.82,111.99 332.36,111.61"/>
    </edge>
    <edge id=":J0_1_16" function="internal">
        <lane id=":J0_1_16_0" index="0" speed="13.90" length="21.03" shape="337.71,117.38 338.30,96.46"/>
        <lane id=":J0_1_16_1" index="1" speed="13.90" length="21.03" shape="340.91,117.56 341.50,96.46"/>
    </edge>
    <edge id=":J0_1_18" function="internal">
        <lane id=":J0_1_18_0" index="0" speed="9.18" length="4.20" shape="340.91,117.56 341.73,113.44"/>
    </edge>
    <edge id=":J0_1_19" function="internal">
        <lane id=":J0_1_19_0" index="0" speed="3.65" length="1.44" shape="340.91,117.56 341.77,116.41"/>
    </edge>
    <edge id=":J0_1_26" function="internal">
        <lane id=":J0_1_26_0" index="0" speed="9.18" length="15.54" shape="341.73,113.44 341.98,112.22 344.51,108.59 348.50,106.68 353.95,106.49"/>
    </edge>
    <edge id=":J0_1_27" function="internal">
        <lane id=":J0_1_27_0" index="0" speed="3.65" length="3.23" shape="341.77,116.41 342.59,116.05 343.37,116.50 344.10,117.74"/>
    </edge>
    <edge id=":J0_2_0" function="internal">
        <lane id=":J0_2_0_0" index="0" speed="10.44" length="17.53" shape="539.52,144.06 537.59,138.94 535.12,135.18 532.12,132.75 528.58,131.67"/>
    </edge>
    <edge id=":J0_2_1" function="internal">
        <lane id=":J0_2_1_0" index="0" speed="15.50" length="26.68" shape="539.52,144.06 537.27,136.19 536.01,130.71 535.47,125.13 535.35,116.96"/>
        <lane id=":J0_2_1_1" index="1" speed="15.50" length="26.68" shape="542.60,143.17 540.42,135.57 539.20,130.26 538.67,124.86 538.55,116.96"/>
        <lane id=":J0_2_1_2" index="2" speed="15.50" length="26.68" shape="545.67,142.29 543.57,134.94 542.38,129.81 541.86,124.59 541.75,116.96"/>
    </edge>
    <edge id=":J0_2_4" function="internal">
        <lane id=":J0_2_4_0" index="0" speed="9.48" length="4.44" shape="545.67,142.29 545.15,137.88"/>
    </edge>
    <edge id=":J0_2_5" function="internal">
        <lane id=":J0_2_5_0" index="0" speed="3.65" length="1.44" shape="545.67,142.29 546.11,140.91"/>
    </edge>
    <edge id=":J0_2_22" function="internal">
        <lane id=":J0_2_22_0" index="0" speed="9.48" length="20.94" shape="545.15,137.88 544.87,135.53 546.93,130.82 551.87,128.15 559.67,127.52"/>
    </edge>
    <edge id=":J0_2_23" function="internal">
        <lane id=":J0_2_23_0" index="0" speed="3.65" length="3.23" shape="546.11,140.91 546.77,140.31 547.65,140.47 548.75,141.40"/>
    </edge>
    <edge id=":J0_2_6" function="internal">
        <lane id=":J0_2_6_0" index="0" speed="5.92" length="9.10" shape="559.39,133.92 556.78,134.17 555.16,135.21 554.53,137.03 554.90,139.63"/>
    </edge>
    <edge id=":J0_2_7" function="internal">
        <lane id=":J0_2_7_0" index="0" speed="13.90" length="30.80" shape="559.39,133.92 528.58,131.67"/>
        <lane id=":J0_2_7_1" index="1" speed="13.90" length="30.80" shape="559.53,130.72 528.92,128.49"/>
    </edge>
    <edge id=":J0_2_9" function="internal">
        <lane id=":J0_2_9_0" index="0" speed="10.68" length="8.10" shape="559.53,130.72 551.75,129.58 551.54,129.47"/>
    </edge>
    <edge id=":J0_2_10" function="internal">
        <lane id=":J0_2_10_0" index="0" speed="3.65" length="1.44" shape="559.53,130.72 558.37,129.87"/>
    </edge>
    <edge id=":J0_2_24" function="internal">
        <lane id=":J0_2_24_0" index="0" speed="10.68" length="17.14" shape="551.54,129.47 546.20,126.90 542.86,122.70 541.75,116.96"/>
    </edge>
    <edge id=":J0_2_25" function="internal">
        <lane id=":J0_2_25_0" index="0" speed="3.65" length="3.23" shape="558.37,129.87 558.00,129.05 558.43,128.27 559.67,127.52"/>
    </edge>
    <edge id=":J0_2_11" function="internal">
        <lane id=":J0_2_11_0" index="0" speed="7.70" length="12.63" shape="551.35,116.96 551.88,120.05 553.46,122.30 556.10,123.73 559.80,124.32"/>
    </edge>
    <edge id=":J0_2_12" function="internal">
        <lane id=":J0_2_12_0" index="0" speed="15.50" length="23.98" shape="551.35,116.96 551.46,123.79 551.93,128.46 553.01,133.05 554.90,139.63"/>
        <lane id=":J0_2_12_1" index="1" speed="15.50" length="23.98" shape="548.15,116.96 548.26,124.06 548.75,128.91 549.86,133.68 551.82,140.52"/>
        <lane id=":J0_2_12_2" index="2" speed="15.50" length="23.98" shape="544.95,116.96 545.06,124.33 545.57,129.36 546.71,134.31 548.75,141.40"/>
    </edge>
    <edge id=":J0_2_15" function="internal">
        <lane id=":J0_2_15_0" index="0" speed="9.69" length="3.80" shape="544.95,116.96 544.29,120.71"/>
    </edge>
    <edge id=":J0_2_16" function="internal">
        <lane id=":J0_2_16_0" index="0" speed="3.65" length="1.44" shape="544.95,116.96 544.15,118.16"/>
    </edge>
    <edge id=":J0_2_26" function="internal">
        <lane id=":J0_2_26_0" index="0" speed="9.69" length="19.22" shape="544.29,120.71 543.95,122.65 540.94,126.47 535.93,128.41 528.92,128.49"/>
    </edge>
    <edge id=":J0_2_27" function="internal">
        <lane id=":J0_2_27_0" index="0" speed="3.65" length="3.23" shape="544.15,118.16 543.35,118.56 542.55,118.16 541.75,116.96"/>
    </edge>
    <edge id=":J0_2_17" function="internal">
        <lane id=":J0_2_17_0" index="0" speed="6.29" length="9.04" shape="529.60,122.13 532.12,122.04 533.91,121.14 534.99,119.45 535.35,116.96"/>
    </edge>
    <edge id=":J0_2_18" function="internal">
        <lane id=":J0_2_18_0" index="0" speed="13.90" length="30.38" shape="529.60,122.13 559.80,124.32"/>
        <lane id=":J0_2_18_1" index="1" speed="13.90" length="30.38" shape="529.26,125.31 559.67,127.52"/>
    </edge>
    <edge id=":J0_2_20" function="internal">
        <lane id=":J0_2_20_0" index="0" speed="12.86" length="4.56" shape="529.26,125.31 533.70,126.34"/>
    </edge>
    <edge id=":J0_2_21" function="internal">
        <lane id=":J0_2_21_0" index="0" speed="3.65" length="1.44" shape="529.26,125.31 530.37,126.23"/>
    </edge>
    <edge id=":J0_2_28" function="internal">
        <lane id=":J0_2_28_0" index="0" speed="12.86" length="22.41" shape="533.70,126.34 536.23,126.93 541.80,130.15 545.97,134.98 548.75,141.40"/>
    </edge>
    <edge id=":J0_2_29" function="internal">
        <lane id=":J0_2_29_0" index="0" speed="3.65" length="3.23" shape="530.37,126.23 530.68,127.07 530.20,127.82 528.92,128.49"/>
    </edge>
    <edge id=":J0_3_0" function="internal">
        <lane id=":J0_3_0_0" index="0" speed="6.98" length="15.01" shape="755.04,153.29 754.13,150.81 751.81,150.20 748.08,151.48 742.95,154.64"/>
    </edge>
    <edge id=":J0_3_1" function="internal">
        <lane id=":J0_3_1_0" index="0" speed="10.85" length="24.83" shape="755.04,153.29 753.59,148.39 749.91,144.77 744.00,142.44 735.86,141.41"/>
    </edge>
    <edge id=":J0_3_2" function="internal">
        <lane id=":J0_3_2_0" index="0" speed="13.90" length="26.31" shape="755.04,153.29 754.10,126.90"/>
        <lane id=":J0_3_2_1" index="1" speed="13.90" length="26.31" shape="758.24,153.10 757.30,126.90"/>
    </edge>
    <edge id=":J0_3_4" function="internal">
        <lane id=":J0_3_4_0" index="0" speed="9.97" length="7.66" shape="758.24,153.10 758.56,145.61 758.62,145.46"/>
    </edge>
    <edge id=":J0_3_5" function="internal">
        <lane id=":J0_3_5_0" index="0" speed="3.65" length="1.44" shape="758.24,153.10 758.96,151.85"/>
    </edge>
    <edge id=":J0_3_30" function="internal">
        <lane id=":J0_3_30_0" index="0" speed="9.97" length="15.97" shape="758.62,145.46 760.58,140.26 764.30,137.05 769.70,135.98"/>
    </edge>
    <edge id=":J0_3_31" function="internal">
        <lane id=":J0_3_31_0" index="0" speed="3.65" length="3.23" shape="758.96,151.85 759.74,151.41 760.56,151.76 761.43,152.91"/>
    </edge>
    <edge id=":J0_3_6" function="internal">
        <lane id=":J0_3_6_0" index="0" speed="7.51" length="12.96" shape="769.70,142.38 767.24,143.03 765.58,144.96 764.71,148.19 764.63,152.71"/>
    </edge>
    <edge id=":J0_3_7" function="internal">
        <lane id=":J0_3_7_0" index="0" speed="12.95" length="29.89" shape="769.70,142.38 762.45,143.49 755.64,146.36 749.18,150.30 742.95,154.64"/>
    </edge>
    <edge id=":J0_3_8" function="internal">
        <lane id=":J0_3_8_0" index="0" speed="13.90" length="33.79" shape="769.70,142.38 735.86,141.41"/>
        <lane id=":J0_3_8_1" index="1" speed="13.90" length="33.79" shape="769.70,139.18 736.00,138.21"/>
    </edge>
    <edge id=":J0_3_10" function="internal">
        <lane id=":J0_3_10_0" index="0" speed="9.38" length="5.48" shape="769.70,139.18 764.27,138.41"/>
    </edge>
    <edge id=":J0_3_11" function="internal">
        <lane id=":J0_3_11_0" index="0" speed="3.65" length="1.44" shape="769.70,139.18 768.50,138.38"/>
    </edge>
    <edge id=":J0_3_32" function="internal">
        <lane id=":J0_3_32_0" index="0" speed="9.38" length="14.42" shape="764.27,138.41 760.40,136.11 758.07,132.27 757.30,126.90"/>
    </edge>
    <edge id=":J0_3_33" function="internal">
        <lane id=":J0_3_33_0" index="0" speed="3.65" length="3.23" shape="768.50,138.38 768.10,137.58 768.50,136.78 769.70,135.98"/>
    </edge>
    <edge id=":J0_3_12" function="internal">
        <lane id=":J0_3_12_0" index="0" speed="6.68" length="9.58" shape="763.70,126.90 764.07,129.47 765.20,131.31 767.07,132.41 769.70,132.78"/>
    </edge>
    <edge id=":J0_3_13" function="internal">
        <lane id=":J0_3_13_0" index="0" speed="13.90" length="25.92" shape="763.70,126.90 764.63,152.71"/>
        <lane id=":J0_3_13_1" index="1" speed="13.90" length="25.92" shape="760.50,126.90 761.43,152.91"/>
    </edge>
    <edge id=":J0_3_15" function="internal">
        <lane id=":J0_3_15_0" index="0" speed="12.95" length="3.06" shape="760.50,126.90 759.88,129.90"/>
    </edge>
    <edge id=":J0_3_16" function="internal">
        <lane id=":J0_3_16_0" index="0" speed="11.26" length="2.39" shape="760.50,126.90 759.84,129.20"/>
    </edge>
    <edge id=":J0_3_17" function="internal">
        <lane id=":J0_3_17_0" index="0" speed="3.65" length="1.44" shape="760.50,126.90 759.70,128.10"/>
    </edge>
    <edge id=":J0_3_34" function="internal">
        <lane id=":J0_3_34_0" index="0" speed="12.95" length="29.71" shape="759.88,129.90 759.29,132.79 755.65,138.94 749.59,145.35 741.11,152.02"/>
    </edge>
    <edge id=":J0_3_35" function="internal">
        <lane id=":J0_3_35_0" index="0" speed="11.26" length="27.67" shape="759.84,129.20 758.97,132.24 754.37,135.90 746.72,137.89 736.00,138.21"/>
    </edge>
    <edge id=":J0_3_36" function="internal">
        <lane id=":J0_3_36_0" index="0" speed="3.65" length="3.23" shape="759.70,128.10 758.90,128.50 758.10,128.10 757.30,126.90"/>
    </edge>
    <edge id=":J0_3_18" function="internal">
        <lane id=":J0_3_18_0" index="0" speed="9.23" length="19.83" shape="736.27,131.81 744.07,131.79 749.64,130.97 752.99,129.34 754.10,126.90"/>
    </edge>
    <edge id=":J0_3_19" function="internal">
        <lane id=":J0_3_19_0" index="0" speed="13.90" length="33.51" shape="736.27,131.81 769.70,132.78"/>
        <lane id=":J0_3_19_1" index="1" speed="13.90" length="33.51" shape="736.13,135.01 769.70,135.98"/>
    </edge>
    <edge id=":J0_3_21" function="internal">
        <lane id=":J0_3_21_0" index="0" speed="12.69" length="6.36" shape="736.13,135.01 742.43,135.90"/>
    </edge>
    <edge id=":J0_3_22" function="internal">
        <lane id=":J0_3_22_0" index="0" speed="7.95" length="2.54" shape="736.13,135.01 738.53,135.82"/>
    </edge>
    <edge id=":J0_3_23" function="internal">
        <lane id=":J0_3_23_0" index="0" speed="3.65" length="1.44" shape="736.13,135.01 737.30,135.86"/>
    </edge>
    <edge id=":J0_3_37" function="internal">
        <lane id=":J0_3_37_0" index="0" speed="12.69" length="27.97" shape="742.43,135.90 746.82,136.52 754.60,140.00 759.47,145.46 761.43,152.91"/>
    </edge>
    <edge id=":J0_3_38" function="internal">
        <lane id=":J0_3_38_0" index="0" speed="7.95" length="21.23" shape="738.53,135.82 742.19,137.05 745.33,141.55 745.12,147.04 741.11,152.02"/>
    </edge>
    <edge id=":J0_3_39" function="internal">
        <lane id=":J0_3_39_0" index="0" speed="3.65" length="3.23" shape="737.30,135.86 737.66,136.68 737.23,137.46 736.00,138.21"/>
    </edge>
    <edge id=":J0_3_24" function="internal">
        <lane id=":J0_3_24_0" index="0" speed="5.46" length="10.27" shape="737.43,146.78 740.01,144.57 740.61,142.94 739.22,141.88 735.86,141.41"/>
    </edge>
    <edge id=":J0_3_25" function="internal">
        <lane id=":J0_3_25_0" index="0" speed="12.95" length="26.68" shape="737.43,146.78 744.73,141.15 749.93,135.96 753.06,131.21 754.10,126.90"/>
    </edge>
    <edge id=":J0_3_26" function="internal">
        <lane id=":J0_3_26_0" index="0" speed="12.95" length="34.62" shape="737.43,146.78 744.52,142.17 752.89,137.63 761.59,134.16 769.70,132.78"/>
        <lane id=":J0_3_26_1" index="1" speed="12.95" length="34.62" shape="739.27,149.40 746.07,144.88 753.81,140.54 761.88,137.27 769.70,135.98"/>
    </edge>
    <edge id=":J0_3_28" function="internal">
        <lane id=":J0_3_28_0" index="0" speed="9.45" length="28.72" shape="739.27,149.40 746.93,145.18 753.89,143.80 759.09,146.10 761.43,152.91"/>
    </edge>
    <edge id=":J0_3_29" function="internal">
        <lane id=":J0_3_29_0" index="0" speed="3.65" length="2.34" shape="739.27,149.40 740.71,149.37 741.50,149.79"/>
    </edge>
    <edge id=":J0_3_40" function="internal">
        <lane id=":J0_3_40_0" index="0" speed="3.65" length="2.34" shape="741.50,149.79 741.63,150.68 741.11,152.02"/>
    </edge>
    <edge id=":J1_0_0" function="internal">
        <lane id=":J1_0_0_0" index="0" speed="6.87" length="9.61" shape="99.57,294.61 99.03,291.90 97.86,289.97 96.06,288.82 93.63,288.43"/>
    </edge>
    <edge id=":J1_0_1" function="internal">
        <lane id=":J1_0_1_0" index="0" speed="13.90" length="29.99" shape="99.57,294.61 99.32,287.05 99.65,279.41 100.49,271.80 101.80,264.35"/>
        <lane id=":J1_0_1_1" index="1" speed="13.90" length="29.99" shape="102.76,294.37 102.51,286.95 102.81,279.62 103.63,272.32 104.93,265.00"/>
    </edge>
    <edge id=":J1_0_3" function="internal">
        <lane id=":J1_0_3_0" index="0" speed="10.11" length="6.82" shape="102.76,294.37 103.18,287.57"/>
    </edge>
    <edge id=":J1_0_4" function="internal">
        <lane id=":J1_0_4_0" index="0" speed="3.65" length="1.44" shape="102.76,294.37 103.47,293.12"/>
    </edge>
    <edge id=":J1_0_22" function="internal">
        <lane id=":J1_0_22_0" index="0" speed="10.11" length="17.19" shape="103.18,287.57 105.56,282.64 109.90,279.59 116.20,278.41"/>
    </edge>
    <edge id=":J1_0_23" function="internal">
        <lane id=":J1_0_23_0" index="0" speed="3.65" length="3.23" shape="103.47,293.12 104.24,292.66 105.07,293.00 105.95,294.14"/>
    </edge>
    <edge id=":J1_0_5" function="internal">
        <lane id=":J1_0_5_0" index="0" speed="6.95" length="10.78" shape="116.51,288.01 113.14,288.47 110.78,289.61 109.45,291.42 109.14,293.91"/>
    </edge>
    <edge id=":J1_0_6" function="internal">
        <lane id=":J1_0_6_0" index="0" speed="15.50" length="22.78" shape="116.51,288.01 93.63,288.43"/>
        <lane id=":J1_0_6_1" index="1" speed="15.50" length="22.78" shape="116.41,284.81 93.63,285.23"/>
        <lane id=":J1_0_6_2" index="2" speed="15.50" length="22.78" shape="116.31,281.61 93.63,282.03"/>
    </edge>
    <edge id=":J1_0_9" function="internal">
        <lane id=":J1_0_9_0" index="0" speed="9.55" length="4.65" shape="116.31,281.61 111.70,280.99"/>
    </edge>
    <edge id=":J1_0_10" function="internal">
        <lane id=":J1_0_10_0" index="0" speed="3.65" length="1.44" shape="116.31,281.61 115.08,280.85"/>
    </edge>
    <edge id=":J1_0_24" function="internal">
        <lane id=":J1_0_24_0" index="0" speed="9.55" length="19.75" shape="111.70,280.99 109.99,280.75 105.99,277.70 104.31,272.45 104.93,265.00"/>
    </edge>
    <edge id=":J1_0_25" function="internal">
        <lane id=":J1_0_25_0" index="0" speed="3.65" length="3.23" shape="115.08,280.85 114.66,280.06 115.03,279.25 116.20,278.41"/>
    </edge>
    <edge id=":J1_0_11" function="internal">
        <lane id=":J1_0_11_0" index="0" speed="6.05" length="9.07" shape="111.20,266.30 111.04,268.88 111.78,270.69 113.44,271.73 116.00,272.02"/>
    </edge>
    <edge id=":J1_0_12" function="internal">
        <lane id=":J1_0_12_0" index="0" speed="13.90" length="28.22" shape="111.20,266.30 109.91,273.35 109.13,280.04 108.87,286.77 109.14,293.91"/>
        <lane id=":J1_0_12_1" index="1" speed="13.90" length="28.22" shape="108.06,265.65 106.77,272.83 105.97,279.83 105.69,286.86 105.95,294.14"/>
    </edge>
    <edge id=":J1_0_14" function="internal">
        <lane id=":J1_0_14_0" index="0" speed="11.08" length="5.91" shape="108.06,265.65 106.34,271.31"/>
    </edge>
    <edge id=":J1_0_15" function="internal">
        <lane id=":J1_0_15_0" index="0" speed="3.65" length="1.44" shape="108.06,265.65 107.04,266.66"/>
    </edge>
    <edge id=":J1_0_26" function="internal">