<edges>
    <edge id="E0_P0_P1" from="P0" to="P1" numLanes="1" speed="13.9" shape="50.0,410.0 350.0,410.0"/>
    <edge id="E0_P1_P0" from="P1" to="P0" numLanes="1" speed="13.9" shape="350.0,410.0 50.0,410.0"/>
    <edge id="E1_P1_P2" from="P1" to="P2" numLanes="1" speed="13.9" shape="350.0,410.0 650.0,410.0"/>
    <edge id="E1_P2_P1" from="P2" to="P1" numLanes="1" speed="13.9" shape="650.0,410.0 350.0,410.0"/>
    <edge id="E2_P0_P3" from="P0" to="P3" numLanes="1" speed="13.9" shape="50.0,410.0 50.0,50.0"/>
    <edge id="E2_P3_P0" from="P3" to="P0" numLanes="1" speed="13.9" shape="50.0,50.0 50.0,410.0"/>
    <edge id="E4_P1_P5" from="P1" to="P5" numLanes="1" speed="13.9" shape="350.0,410.0 350.0,50.0"/>
    <edge id="E4_P5_P1" from="P5" to="P1" numLanes="1" speed="13.9" shape="350.0,50.0 350.0,410.0"/>
</edges>