<edges>
    <edge id="R0_J0_J1" from="J0" to="J1" numLanes="1" speed="13.9" shape="55.0,445.0 705.0,445.0"/>
    <edge id="R0_J1_J0" from="J1" to="J0" numLanes="1" speed="13.9" shape="705.0,445.0 55.0,445.0"/>
    <edge id="R1_J1_J3" from="J1" to="J3" numLanes="1" speed="13.9" shape="705.0,445.0 705.0,179.09"/>
    <edge id="R1_J3_J1" from="J3" to="J1" numLanes="1" speed="13.9" shape="705.0,179.09 705.0,445.0"/>
    <edge id="R2_J3_J6" from="J3" to="J6" numLanes="1" speed="13.9" shape="705.0,179.09 55.0,179.09"/>
    <edge id="R2_J6_J3" from="J6" to="J3" numLanes="1" speed="13.9" shape="55.0,179.09 705.0,179.09"/>
    <edge id="R3_J1_J2" from="J1" to="J2" numLanes="1" speed="13.9" shape="705.0,445.0 705.0,445.0"/>
    <edge id="R3_J2_J1" from="J2" to="J1" numLanes="1" speed="13.9" shape="705.0,445.0 705.0,445.0"/>
    <edge id="R4_J2_J3" from="J2" to="J3" numLanes="1" speed="13.9" shape="705.0,445.0 705.0,179.09"/>
    <edge id="R4_J3_J2" from="J3" to="J2" numLanes="1" speed="13.9" shape="705.0,179.09 705.0,445.0"/>
    <edge id="R5_J3_J5" from="J3" to="J5" numLanes="1" speed="13.9" shape="705.0,179.09 705.0,125.91"/>
    <edge id="R5_J5_J3" from="J5" to="J3" numLanes="1" speed="13.9" shape="705.0,125.91 705.0,179.09"/>
    <edge id="R6_J5_J4" from="J5" to="J4" numLanes="1" speed="13.9" shape="705.0,125.91 705.0,55.0"/>
    <edge id="R6_J4_J5" from="J4" to="J5" numLanes="1" speed="13.9" shape="705.0,55.0 705.0,125.91"/>
    <edge id="R7_J7_J5" from="J7" to="J5" numLanes="1" speed="13.9" shape="530.61,125.91 705.0,125.91"/>
    <edge id="R7_J5_J7" from="J5" to="J7" numLanes="1" speed="13.9" shape="705.0,125.91 530.61,125.91"/>
</edges>