<routes>
    <vType id="passenger" accel="2.6" decel="4.5" sigma="0.5" length="5" maxSpeed="13.9"/>
    <vType id="emergency" accel="3.0" decel="5.0" sigma="0.2" length="5" maxSpeed="16.0" color="1,0,0"/>
    <route id="r0" edges="R0_J0_J1 R1_J1_J3 R5_J3_J5 R6_J5_J4"/>
    <route id="r1" edges="R0_J0_J1 R1_J1_J3 R2_J3_J6"/>
    <route id="r2" edges="R0_J0_J1 R1_J1_J3 R5_J3_J5 R7_J5_J7"/>
    <route id="r3" edges="R6_J4_J5 R5_J5_J3 R1_J3_J1 R0_J1_J0"/>
    <route id="r4" edges="R6_J4_J5 R5_J5_J3 R2_J3_J6"/>
    <route id="r5" edges="R6_J4_J5 R7_J5_J7"/>
    <route id="r6" edges="R2_J6_J3 R1_J3_J1 R0_J1_J0"/>
    <route id="r7" edges="R2_J6_J3 R5_J3_J5 R6_J5_J4"/>
    <route id="r8" edges="R2_J6_J3 R5_J3_J5 R7_J5_J7"/>
    <route id="r9" edges="R7_J7_J5 R5_J5_J3 R1_J3_J1 R0_J1_J0"/>
    <route id="r10" edges="R7_J7_J5 R6_J5_J4"/>
    <route id="r11" edges="R7_J7_J5 R5_J5_J3 R2_J3_J6"/>
    <vehicle id="veh0" type="passenger" route="r10" depart="0.0"/>
    <vehicle id="veh1" type="passenger" route="r5" depart="1.45"/>
    <vehicle id="veh2" type="passenger" route="r2" depart="2.9"/>
    <vehicle id="veh3" type="passenger" route="r7" depart="4.35"/>
    <vehicle id="veh4" type="passenger" route="r3" depart="5.8"/>
    <vehicle id="veh5" type="passenger" route="r8" depart="7.25"/>
    <vehicle id="veh6" type="passenger" route="r11" depart="8.7"/>
    <vehicle id="veh7" type="passenger" route="r8" depart="10.14"/>
    <vehicle id="veh8" type="passenger" route="r0" depart="11.59"/>
    <vehicle id="veh9" type="passenger" route="r7" depart="13.04"/>
    <vehicle id="veh10" type="passenger" route="r5" depart="14.49"/>
    <vehicle id="veh11" type="passenger" route="r3" depart="15.94"/>
    <vehicle id="veh12" type="passenger" route="r8" depart="17.39"/>
    <vehicle id="veh13" type="passenger" route="r5" depart="18.84"/>
    <vehicle id="veh14" type="passenger" route="r8" depart="20.29"/>
    <vehicle id="veh15" type="passenger" route="r6" depart="21.74"/>
    <vehicle id="veh16" type="passenger" route="r9" depart="23.19"/>
    <vehicle id="veh17" type="passenger" route="r4" depart="24.64"/>
    <vehicle id="veh18" type="passenger" route="r0" depart="26.09"/>
    <vehicle id="veh19" type="passenger" route="r5" depart="27.54"/>
    <vehicle id="veh20" type="passenger" route="r5" depart="28.99"/>
    <vehicle id="veh21" type="passenger" route="r9" depart="30.43"/>
    <vehicle id="veh22" type="emergency" route="r4" depart="31.88"/>
    <vehicle id="veh23" type="passenger" route="r9" depart="33.33"/>
    <vehicle id="veh24" type="emergency" route="r8" depart="34.78"/>
    <vehicle id="veh25" type="passenger" route="r9" depart="36.23"/>
    <vehicle id="veh26" type="passenger" route="r2" depart="37.68"/>
    <vehicle id="veh27" type="passenger" route="r9" depart="39.13"/>
    <vehicle id="veh28" type="passenger" route="r1" depart="40.58"/>
    <vehicle id="veh29" type="passenger" route="r0" depart="42.03"/>
    <vehicle id="veh30" type="passenger" route="r3" depart="43.48"/>
    <vehicle id="veh31" type="passenger" route="r2" depart="44.93"/>
    <vehicle id="veh32" type="passenger" route="r8" depart="46.38"/>
    <vehicle id="veh33" type="passenger" route="r2" depart="47.83"/>
    <vehicle id="veh34" type="passenger" route="r4" depart="49.28"/>
    <vehicle id="veh35" type="passenger" route="r0" depart="50.72"/>
    <vehicle id="veh36" type="passenger" route="r3" depart="52.17"/>
    <vehicle id="veh37" type="passenger" route="r7" depart="53.62"/>
    <vehicle id="veh38" type="passenger" route="r5" depart="55.07"/>
    <vehicle id="veh39" type="passenger" route="r2" depart="56.52"/>
    <vehicle id="veh40" type="passenger" route="r10" depart="57.97"/>
    <vehicle id="veh41" type="passenger" route="r2" depart="59.42"/>
    <vehicle id="veh42" type="passenger" route="r2" depart="60.87"/>
    <vehicle id="veh43" type="passenger" route="r7" depart="62.32"/>
    <vehicle id="veh44" type="passenger" route="r1" depart="63.77"/>
    <vehicle id="veh45" type="passenger" route="r3" depart="65.22"/>
    <vehicle id="veh46" type="passenger" route="r5" depart="66.67"/>
    <vehicle id="veh47" type="passenger" route="r3" depart="68.12"/>
    <vehicle id="veh48" type="passenger" route="r11" depart="69.57"/>
    <vehicle id="veh49" type="passenger" route="r7" depart="71.01"/>
    <vehicle id="veh50" type="passenger" route="r0" depart="72.46"/>
    <vehicle id="veh51" type="passenger" route="r9" depart="73.91"/>
    <vehicle id="veh52" type="passenger" route="r5" depart="75.36"/>
    <vehicle id="veh53" type="passenger" route="r3" depart="76.81"/>
    <vehicle id="veh54" type="passenger" route="r0" depart="78.26"/>
    <vehicle id="veh55" type="passenger" route="r11" depart="79.71"/>
    <vehicle id="veh56" type="passenger" route="r6" depart="81.16"/>
    <vehicle id="veh57" type="emergency" route="r0" depart="82.61"/>
    <vehicle id="veh58" type="passenger" route="r8" depart="84.06"/>
    <vehicle id="veh59" type="passenger" route="r7" depart="85.51"/>
    <vehicle id="veh60" type="passenger" route="r9" depart="86.96"/>
    <vehicle id="veh61" type="passenger" route="r0" depart="88.41"/>
    <vehicle id="veh62" type="passenger" route="r0" depart="89.86"/>
    <vehicle id="veh63" type="passenger" route="r8" depart="91.3"/>
    <vehicle id="veh64" type="passenger" route="r4" depart="92.75"/>
    <vehicle id="veh65" type="passenger" route="r10" depart="94.2"/>
    <vehicle id="veh66" type="passenger" route="r10" depart="95.65"/>
    <vehicle id="veh67" type="passenger" route="r8" depart="97.1"/>
    <vehicle id="veh68" type="passenger" route="r7" depart="98.55"/>
    <vehicle id="veh69" type="passenger" route="r1" depart="100.0"/>
    <vehicle id="veh70" type="passenger" route="r9" depart="101.45"/>
    <vehicle id="veh71" type="passenger" route="r8" depart="102.9"/>
    <vehicle id="veh72" type="passenger" route="r10" depart="104.35"/>
    <vehicle id="veh73" type="passenger" route="r0" depart="105.8"/>
    <vehicle id="veh74" type="passenger" route="r0" depart="107.25"/>
    <vehicle id="veh75" type="passenger" route="r5" depart="108.7"/>
    <vehicle id="veh76" type="emergency" route="r3" depart="110.14"/>
    <vehicle id="veh77" type="passenger" route="r2" depart="111.59"/>
    <vehicle id="veh78" type="passenger" route="r2" depart="113.04"/>
    <vehicle id="veh79" type="passenger" route="r11" depart="114.49"/>
    <vehicle id="veh80" type="passenger" route="r4" depart="115.94"/>
    <vehicle id="veh81" type="passenger" route="r8" depart="117.39"/>
    <vehicle id="veh82" type="passenger" route="r10" depart="118.84"/>
    <vehicle id="veh83" type="passenger" route="r11" depart="120.29"/>
    <vehicle id="veh84" type="passenger" route="r5" depart="121.74"/>
    <vehicle id="veh85" type="passenger" route="r8" depart="123.19"/>
    <vehicle id="veh86" type="passenger" route="r10" depart="124.64"/>
    <vehicle id="veh87" type="passenger" route="r3" depart="126.09"/>
    <vehicle id="veh88" type="passenger" route="r4" depart="127.54"/>
    <vehicle id="veh89" type="passenger" route="r4" depart="128.99"/>
    <vehicle id="veh90" type="passenger" route="r5" depart="130.43"/>
    <vehicle id="veh91" type="passenger" route="r3" depart="131.88"/>
    <vehicle id="veh92" type="passenger" route="r8" depart="133.33"/>
    <vehicle id="veh93" type="passenger" route="r8" depart="134.78"/>
    <vehicle id="veh94" type="passenger" route="r2" depart="136.23"/>
    <vehicle id="veh95" type="passenger" route="r9" depart="137.68"/>
    <vehicle id="veh96" type="passenger" route="r9" depart="139.13"/>
    <vehicle id="veh97" type="passenger" route="r5" depart="140.58"/>
    <vehicle id="veh98" type="passenger" route="r8" depart="142.03"/>
    <vehicle id="veh99" type="passenger" route="r8" depart="143.48"/>
    <vehicle id="veh100" type="passenger" route="r3" depart="144.93"/>
    <vehicle id="veh101" type="passenger" route="r7" depart="146.38"/>
    <vehicle id="veh102" type="passenger" route="r3" depart="147.83"/>
    <vehicle id="veh103" type="passenger" route="r11" depart="149.28"/>
    <vehicle id="veh104" type="passenger" route="r4" depart="150.72"/>
    <vehicle id="veh105" type="passenger" route="r0" depart="152.17"/>
    <vehicle id="veh106" type="passenger" route="r4" depart="153.62"/>
    <vehicle id="veh107" type="passenger" route="r8" depart="155.07"/>
    <vehicle id="veh108" type="passenger" route="r7" depart="156.52"/>
    <vehicle id="veh109" type="passenger" route="r9" depart="157.97"/>
    <vehicle id="veh110" type="passenger" route="r4" depart="159.42"/>
    <vehicle id="veh111" type="passenger" route="r9" depart="160.87"/>
    <vehicle id="veh112" type="passenger" route="r11" depart="162.32"/>
    <vehicle id="veh113" type="passenger" route="r10" depart="163.77"/>
    <vehicle id="veh114" type="passenger" route="r7" depart="165.22"/>
    <vehicle id="veh115" type="passenger" route="r3" depart="166.67"/>
    <vehicle id="veh116" type="passenger" route="r4" depart="168.12"/>
    <vehicle id="veh117" type="passenger" route="r4" depart="169.57"/>
    <vehicle id="veh118" type="passenger" route="r5" depart="171.01"/>
    <vehicle id="veh119" type="passenger" route="r5" depart="172.46"/>
    <vehicle id="veh120" type="passenger" route="r4" depart="173.91"/>
    <vehicle id="veh121" type="passenger" route="r5" depart="175.36"/>
    <vehicle id="veh122" type="passenger" route="r6" depart="176.81"/>
    <vehicle id="veh123" type="passenger" route="r11" depart="178.26"/>
    <vehicle id="veh124" type="passenger" route="r0" depart="179.71"/>
    <vehicle id="veh125" type="passenger" route="r7" depart="181.16"/>
    <vehicle id="veh126" type="passenger" route="r8" depart="182.61"/>
    <vehicle id="veh127" type="passenger" route="r3" depart="184.06"/>
    <vehicle id="veh128" type="passenger" route="r2" depart="185.51"/>
    <vehicle id="veh129" type="passenger" route="r6" depart="186.96"/>
    <vehicle id="veh130" type="passenger" route="r5" depart="188.41"/>
    <vehicle id="veh131" type="passenger" route="r7" depart="189.86"/>
    <vehicle id="veh132" type="passenger" route="r6" depart="191.3"/>
    <vehicle id="veh133" type="passenger" route="r1" depart="192.75"/>
    <vehicle id="veh134" type="passenger" route="r0" depart="194.2"/>
    <vehicle id="veh135" type="passenger" route="r11" depart="195.65"/>
    <vehicle id="veh136" type="passenger" route="r3" depart="197.1"/>
    <vehicle id="veh137" type="passenger" route="r4" depart="198.55"/>
    <vehicle id="veh138" type="passenger" route="r6" depart="200.0"/>
    <vehicle id="veh139" type="passenger" route="r7" depart="201.45"/>
    <vehicle id="veh140" type="passenger" route="r8" depart="202.9"/>
    <vehicle id="veh141" type="passenger" route="r2" depart="204.35"/>
    <vehicle id="veh142" type="passenger" route="r3" depart="205.8"/>
    <vehicle id="veh143" type="passenger" route="r7" depart="207.25"/>
    <vehicle id="veh144" type="passenger" route="r7" depart="208.7"/>
    <vehicle id="veh145" type="passenger" route="r3" depart="210.14"/>
    <vehicle id="veh146" type="passenger" route="r10" depart="211.59"/>
    <vehicle id="veh147" type="passenger" route="r5" depart="213.04"/>
    <vehicle id="veh148" type="passenger" route="r7" depart="214.49"/>
    <vehicle id="veh149" type="passenger" route="r8" depart="215.94"/>
    <vehicle id="veh150" type="passenger" route="r7" depart="217.39"/>
    <vehicle id="veh151" type="passenger" route="r11" depart="218.84"/>
    <vehicle id="veh152" type="passenger" route="r10" depart="220.29"/>
    <vehicle id="veh153" type="passenger" route="r10" depart="221.74"/>
    <vehicle id="veh154" type="passenger" route="r10" depart="223.19"/>
    <vehicle id="veh155" type="passenger" route="r2" depart="224.64"/>
    <vehicle id="veh156" type="passenger" route="r1" depart="226.09"/>
    <vehicle id="veh157" type="passenger" route="r7" depart="227.54"/>
    <vehicle id="veh158" type="passenger" route="r4" depart="228.99"/>
    <vehicle id="veh159" type="passenger" route="r1" depart="230.43"/>
    <vehicle id="veh160" type="passenger" route="r11" depart="231.88"/>
    <vehicle id="veh161" type="passenger" route="r8" depart="233.33"/>
    <vehicle id="veh162" type="passenger" route="r6" depart="234.78"/>
    <vehicle id="veh163" type="passenger" route="r9" depart="236.23"/>
    <vehicle id="veh164" type="passenger" route="r0" depart="237.68"/>
    <vehicle id="veh165" type="passenger" route="r10" depart="239.13"/>
    <vehicle id="veh166" type="passenger" route="r2" depart="240.58"/>
    <vehicle id="veh167" type="passenger" route="r11" depart="242.03"/>
    <vehicle id="veh168" type="passenger" route="r7" depart="243.48"/>
    <vehicle id="veh169" type="passenger" route="r5" depart="244.93"/>
    <vehicle id="veh170" type="passenger" route="r4" depart="246.38"/>
    <vehicle id="veh171" type="passenger" route="r5" depart="247.83"/>
    <vehicle id="veh172" type="passenger" route="r8" depart="249.28"/>
    <vehicle id="veh173" type="passenger" route="r2" depart="250.72"/>
    <vehicle id="veh174" type="passenger" route="r4" depart="252.17"/>
    <vehicle id="veh175" type="passenger" route="r2" depart="253.62"/>
    <vehicle id="veh176" type="passenger" route="r4" depart="255.07"/>
    <vehicle id="veh177" type="passenger" route="r10" depart="256.52"/>
    <vehicle id="veh178" type="passenger" route="r7" depart="257.97"/>
    <vehicle id="veh179" type="passenger" route="r11" depart="259.42"/>
    <vehicle id="veh180" type="passenger" route="r3" depart="260.87"/>
    <vehicle id="veh181" type="passenger" route="r9" depart="262.32"/>
    <vehicle id="veh182" type="passenger" route="r2" depart="263.77"/>
    <vehicle id="veh183" type="passenger" route="r8" depart="265.22"/>
    <vehicle id="veh184" type="passenger" route="r5" depart="266.67"/>
    <vehicle id="veh185" type="passenger" route="r9" depart="268.12"/>
    <vehicle id="veh186" type="passenger" route="r0" depart="269.57"/>
    <vehicle id="veh187" type="passenger" route="r10" depart="271.01"/>
    <vehicle id="veh188" type="passenger" route="r11" depart="272.46"/>
    <vehicle id="veh189" type="passenger" route="r2" depart="273.91"/>
    <vehicle id="veh190" type="passenger" route="r7" depart="275.36"/>
    <vehicle id="veh191" type="passenger" route="r8" depart="276.81"/>
    <vehicle id="veh192" type="passenger" route="r11" depart="278.26"/>
    <vehicle id="veh193" type="passenger" route="r1" depart="279.71"/>
    <vehicle id="veh194" type="passenger" route="r4" depart="281.16"/>
    <vehicle id="veh195" type="emergency" route="r8" depart="282.61"/>
    <vehicle id="veh196" type="passenger" route="r3" depart="284.06"/>
    <vehicle id="veh197" type="passenger" route="r7" depart="285.51"/>
    <vehicle id="veh198" type="passenger" route="r7" depart="286.96"/>
    <vehicle id="veh199" type="passenger" route="r5" depart="288.41"/>
    <vehicle id="veh200" type="passenger" route="r7" depart="289.86"/>
    <vehicle id="veh201" type="passenger" route="r4" depart="291.3"/>
    <vehicle id="veh202" type="passenger" route="r5" depart="292.75"/>
    <vehicle id="veh203" type="passenger" route="r7" depart="294.2"/>
    <vehicle id="veh204" type="passenger" route="r11" depart="295.65"/>
    <vehicle id="veh205" type="passenger" route="r4" depart="297.1"/>
    <vehicle id="veh206" type="passenger" route="r3" depart="298.55"/>
    <vehicle id="veh207" type="passenger" route="r11" depart="300.0"/>
    <vehicle id="veh208" type="emergency" route="r3" depart="301.45"/>
    <vehicle id="veh209" type="passenger" route="r7" depart="302.9"/>
    <vehicle id="veh210" type="passenger" route="r9" depart="304.35"/>
    <vehicle id="veh211" type="passenger" route="r9" depart="305.8"/>
    <vehicle id="veh212" type="passenger" route="r11" depart="307.25"/>
    <vehicle id="veh213" type="passenger" route="r5" depart="308.7"/>
    <vehicle id="veh214" type="passenger" route="r0" depart="310.14"/>
    <vehicle id="veh215" type="passenger" route="r11" depart="311.59"/>
    <vehicle id="veh216" type="passenger" route="r7" depart="313.04"/>
    <vehicle id="veh217" type="passenger" route="r5" depart="314.49"/>
    <vehicle id="veh218" type="passenger" route="r4" depart="315.94"/>
    <vehicle id="veh219" type="passenger" route="r5" depart="317.39"/>
    <vehicle id="veh220" type="passenger" route="r7" depart="318.84"/>
    <vehicle id="veh221" type="passenger" route="r5" depart="320.29"/>
    <vehicle id="veh222" type="passenger" route="r10" depart="321.74"/>
    <vehicle id="veh223" type="passenger" route="r9" depart="323.19"/>
    <vehicle id="veh224" type="passenger" route="r6" depart="324.64"/>
    <vehicle id="veh225" type="passenger" route="r8" depart="326.09"/>
    <vehicle id="veh226" type="passenger" route="r7" depart="327.54"/>
    <vehicle id="veh227" type="passenger" route="r7" depart="328.99"/>
    <vehicle id="veh228" type="passenger" route="r2" depart="330.43"/>
    <vehicle id="veh229" type="passenger" route="r11" depart="331.88"/>
    <vehicle id="veh230" type="emergency" route="r8" depart="333.33"/>
    <vehicle id="veh231" type="passenger" route="r5" depart="334.78"/>
    <vehicle id="veh232" type="passenger" route="r3" depart="336.23"/>
    <vehicle id="veh233" type="passenger" route="r11" depart="337.68"/>
    <vehicle id="veh234" type="passenger" route="r8" depart="339.13"/>
    <vehicle id="veh235" type="passenger" route="r4" depart="340.58"/>
    <vehicle id="veh236" type="passenger" route="r9" depart="342.03"/>
    <vehicle id="veh237" type="passenger" route="r9" depart="343.48"/>
    <vehicle id="veh238" type="passenger" route="r10" depart="344.93"/>
    <vehicle id="veh239" type="passenger" route="r5" depart="346.38"/>
    <vehicle id="veh240" type="passenger" route="r4" depart="347.83"/>
    <vehicle id="veh241" type="passenger" route="r4" depart="349.28"/>
    <vehicle id="veh242" type="passenger" route="r10" depart="350.72"/>
    <vehicle id="veh243" type="passenger" route="r4" depart="352.17"/>
    <vehicle id="veh244" type="passenger" route="r0" depart="353.62"/>
    <vehicle id="veh245" type="passenger" route="r7" depart="355.07"/>
    <vehicle id="veh246" type="passenger" route="r3" depart="356.52"/>
    <vehicle id="veh247" type="passenger" route="r3" depart="357.97"/>
    <vehicle id="veh248" type="passenger" route="r0" depart="359.42"/>
    <vehicle id="veh249" type="passenger" route="r9" depart="360.87"/>
    <vehicle id="veh250" type="passenger" route="r3" depart="362.32"/>
    <vehicle id="veh251" type="passenger" route="r4" depart="363.77"/>
    <vehicle id="veh252" type="passenger" route="r5" depart="365.22"/>
    <vehicle id="veh253" type="passenger" route="r11" depart="366.67"/>
    <vehicle id="veh254" type="passenger" route="r5" depart="368.12"/>
    <vehicle id="veh255" type="passenger" route="r10" depart="369.57"/>
    <vehicle id="veh256" type="passenger" route="r10" depart="371.01"/>
    <vehicle id="veh257" type="passenger" route="r4" depart="372.46"/>
    <vehicle id="veh258" type="passenger" route="r9" depart="373.91"/>
    <vehicle id="veh259" type="passenger" route="r7" depart="375.36"/>
    <vehicle id="veh260" type="passenger" route="r2" depart="376.81"/>
    <vehicle id="veh261" type="passenger" route="r10" depart="378.26"/>
    <vehicle id="veh262" type="passenger" route="r3" depart="379.71"/>
    <vehicle id="veh263" type="passenger" route="r7" depart="381.16"/>
    <vehicle id="veh264" type="passenger" route="r10" depart="382.61"/>
    <vehicle id="veh265" type="passenger" route="r7" depart="384.06"/>
    <vehicle id="veh266" type="passenger" route="r4" depart="385.51"/>
    <vehicle id="veh267" type="passenger" route="r10" depart="386.96"/>
    <vehicle id="veh268" type="passenger" route="r8" depart="388.41"/>
    <vehicle id="veh269" type="passenger" route="r5" depart="389.86"/>
    <vehicle id="veh270" type="passenger" route="r9" depart="391.3"/>
    <vehicle id="veh271" type="passenger" route="r4" depart="392.75"/>
    <vehicle id="veh272" type="passenger" route="r8" depart="394.2"/>
    <vehicle id="veh273" type="passenger" route="r9" depart="395.65"/>
    <vehicle id="veh274" type="passenger" route="r11" depart="397.1"/>
    <vehicle id="veh275" type="emergency" route="r4" depart="398.55"/>
    <vehicle id="veh276" type="passenger" route="r10" depart="400.0"/>
    <vehicle id="veh277" type="passenger" route="r8" depart="401.45"/>
    <vehicle id="veh278" type="passenger" route="r0" depart="402.9"/>
    <vehicle id="veh279" type="passenger" route="r11" depart="404.35"/>
    <vehicle id="veh280" type="passenger" route="r11" depart="405.8"/>
    <vehicle id="veh281" type="passenger" route="r4" depart="407.25"/>
    <vehicle id="veh282" type="passenger" route="r3" depart="408.7"/>
    <vehicle id="veh283" type="passenger" route="r5" depart="410.14"/>
    <vehicle id="veh284" type="passenger" route="r8" depart="411.59"/>
    <vehicle id="veh285" type="passenger" route="r11" depart="413.04"/>
    <vehicle id="veh286" type="passenger" route="r7" depart="414.49"/>
    <vehicle id="veh287" type="passenger" route="r4" depart="415.94"/>
    <vehicle id="veh288" type="passenger" route="r3" depart="417.39"/>
    <vehicle id="veh289" type="passenger" route="r5" depart="418.84"/>
    <vehicle id="veh290" type="passenger" route="r2" depart="420.29"/>
    <vehicle id="veh291" type="passenger" route="r11" depart="421.74"/>
    <vehicle id="veh292" type="passenger" route="r7" depart="423.19"/>
    <vehicle id="veh293" type="passenger" route="r10" depart="424.64"/>
    <vehicle id="veh294" type="passenger" route="r11" depart="426.09"/>
    <vehicle id="veh295" type="passenger" route="r9" depart="427.54"/>
    <vehicle id="veh296" type="passenger" route="r4" depart="428.99"/>
    <vehicle id="veh297" type="passenger" route="r9" depart="430.43"/>
    <vehicle id="veh298" type="passenger" route="r9" depart="431.88"/>
    <vehicle id="veh299" type="passenger" route="r8" depart="433.33"/>
    <vehicle id="veh300" type="passenger" route="r10" depart="434.78"/>
    <vehicle id="veh301" type="passenger" route="r9" depart="436.23"/>
    <vehicle id="veh302" type="passenger" route="r10" depart="437.68"/>
    <vehicle id="veh303" type="passenger" route="r2" depart="439.13"/>
    <vehicle id="veh304" type="passenger" route="r2" depart="440.58"/>
    <vehicle id="veh305" type="passenger" route="r3" depart="442.03"/>
    <vehicle id="veh306" type="passenger" route="r7" depart="443.48"/>
    <vehicle id="veh307" type="passenger" route="r10" depart="444.93"/>
    <vehicle id="veh308" type="passenger" route="r0" depart="446.38"/>
    <vehicle id="veh309" type="passenger" route="r7" depart="447.83"/>
    <vehicle id="veh310" type="passenger" route="r5" depart="449.28"/>
    <vehicle id="veh311" type="passenger" route="r7" depart="450.72"/>
    <vehicle id="veh312" type="passenger" route="r9" depart="452.17"/>
    <vehicle id="veh313" type="passenger" route="r0" depart="453.62"/>
    <vehicle id="veh314" type="passenger" route="r0" depart="455.07"/>
    <vehicle id="veh315" type="passenger" route="r2" depart="456.52"/>
    <vehicle id="veh316" type="passenger" route="r4" depart="457.97"/>
    <vehicle id="veh317" type="passenger" route="r3" depart="459.42"/>
    <vehicle id="veh318" type="passenger" route="r0" depart="460.87"/>
    <vehicle id="veh319" type="passenger" route="r1" depart="462.32"/>
    <vehicle id="veh320" type="passenger" route="r9" depart="463.77"/>
    <vehicle id="veh321" type="emergency" route="r8" depart="465.22"/>
    <vehicle id="veh322" type="passenger" route="r8" depart="466.67"/>
    <vehicle id="veh323" type="passenger" route="r7" depart="468.12"/>
    <vehicle id="veh324" type="passenger" route="r10" depart="469.57"/>
    <vehicle id="veh325" type="passenger" route="r2" depart="471.01"/>
    <vehicle id="veh326" type="passenger" route="r8" depart="472.46"/>
    <vehicle id="veh327" type="passenger" route="r3" depart="473.91"/>
    <vehicle id="veh328" type="passenger" route="r7" depart="475.36"/>
    <vehicle id="veh329" type="passenger" route="r2" depart="476.81"/>
    <vehicle id="veh330" type="passenger" route="r3" depart="478.26"/>
    <vehicle id="veh331" type="passenger" route="r9" depart="479.71"/>
    <vehicle id="veh332" type="passenger" route="r0" depart="481.16"/>
    <vehicle id="veh333" type="passenger" route="r2" depart="482.61"/>
    <vehicle id="veh334" type="passenger" route="r2" depart="484.06"/>
    <vehicle id="veh335" type="passenger" route="r7" depart="485.51"/>
    <vehicle id="veh336" type="passenger" route="r0" depart="486.96"/>
    <vehicle id="veh337" type="passenger" route="r5" depart="488.41"/>
    <vehicle id="veh338" type="passenger" route="r11" depart="489.86"/>
    <vehicle id="veh339" type="passenger" route="r9" depart="491.3"/>
    <vehicle id="veh340" type="passenger" route="r5" depart="492.75"/>
    <vehicle id="veh341" type="passenger" route="r0" depart="494.2"/>
    <vehicle id="veh342" type="passenger" route="r4" depart="495.65"/>
    <vehicle id="veh343" type="passenger" route="r8" depart="497.1"/>
    <vehicle id="veh344" type="passenger" route="r3" depart="498.55"/>
    <vehicle id="veh345" type="passenger" route="r8" depart="500.0"/>
    <vehicle id="veh346" type="passenger" route="r2" depart="501.45"/>
    <vehicle id="veh347" type="passenger" route="r10" depart="502.9"/>
    <vehicle id="veh348" type="passenger" route="r3" depart="504.35"/>
    <vehicle id="veh349" type="passenger" route="r7" depart="505.8"/>
    <vehicle id="veh350" type="passenger" route="r6" depart="507.25"/>
    <vehicle id="veh351" type="passenger" route="r11" depart="508.7"/>
    <vehicle id="veh352" type="passenger" route="r8" depart="510.14"/>
    <vehicle id="veh353" type="passenger" route="r11" depart="511.59"/>
    <vehicle id="veh354" type="passenger" route="r9" depart="513.04"/>
    <vehicle id="veh355" type="passenger" route="r7" depart="514.49"/>
    <vehicle id="veh356" type="passenger" route="r0" depart="515.94"/>
    <vehicle id="veh357" type="passenger" route="r5" depart="517.39"/>
    <vehicle id="veh358" type="passenger" route="r2" depart="518.84"/>
    <vehicle id="veh359" type="passenger" route="r7" depart="520.29"/>
    <vehicle id="veh360" type="passenger" route="r2" depart="521.74"/>
    <vehicle id="veh361" type="passenger" route="r7" depart="523.19"/>
    <vehicle id="veh362" type="passenger" route="r3" depart="524.64"/>
    <vehicle id="veh363" type="passenger" route="r9" depart="526.09"/>
    <vehicle id="veh364" type="passenger" route="r2" depart="527.54"/>
    <vehicle id="veh365" type="passenger" route="r5" depart="528.99"/>
    <vehicle id="veh366" type="passenger" route="r2" depart="530.43"/>
    <vehicle id="veh367" type="passenger" route="r11" depart="531.88"/>
    <vehicle id="veh368" type="emergency" route="r9" depart="533.33"/>
    <vehicle id="veh369" type="passenger" route="r5" depart="534.78"/>
    <vehicle id="veh370" type="passenger" route="r4" depart="536.23"/>
    <vehicle id="veh371" type="passenger" route="r4" depart="537.68"/>
    <vehicle id="veh372" type="passenger" route="r7" depart="539.13"/>
    <vehicle id="veh373" type="passenger" route="r9" depart="540.58"/>
    <vehicle id="veh374" type="passenger" route="r4" depart="542.03"/>
    <vehicle id="veh375" type="passenger" route="r5" depart="543.48"/>
    <vehicle id="veh376" type="passenger" route="r11" depart="544.93"/>
    <vehicle id="veh377" type="passenger" route="r9" depart="546.38"/>
    <vehicle id="veh378" type="passenger" route="r10" depart="547.83"/>
    <vehicle id="veh379" type="passenger" route="r10" depart="549.28"/>
    <vehicle id="veh380" type="passenger" route="r10" depart="550.72"/>
    <vehicle id="veh381" type="passenger" route="r6" depart="552.17"/>
    <vehicle id="veh382" type="passenger" route="r4" depart="553.62"/>
    <vehicle id="veh383" type="passenger" route="r7" depart="555.07"/>
    <vehicle id="veh384" type="passenger" route="r7" depart="556.52"/>
    <vehicle id="veh385" type="passenger" route="r10" depart="557.97"/>
    <vehicle id="veh386" type="passenger" route="r2" depart="559.42"/>
    <vehicle id="veh387" type="passenger" route="r10" depart="560.87"/>
    <vehicle id="veh388" type="passenger" route="r8" depart="562.32"/>
    <vehicle id="veh389" type="passenger" route="r7" depart="563.77"/>
    <vehicle id="veh390" type="passenger" route="r10" depart="565.22"/>
    <vehicle id="veh391" type="passenger" route="r11" depart="566.67"/>
    <vehicle id="veh392" type="passenger" route="r5" depart="568.12"/>
    <vehicle id="veh393" type="passenger" route="r8" depart="569.57"/>
    <vehicle id="veh394" type="passenger" route="r10" depart="571.01"/>
    <vehicle id="veh395" type="passenger" route="r2" depart="572.46"/>
    <vehicle id="veh396" type="passenger" route="r0" depart="573.91"/>
    <vehicle id="veh397" type="passenger" route="r0" depart="575.36"/>
    <vehicle id="veh398" type="passenger" route="r10" depart="576.81"/>
    <vehicle id="veh399" type="passenger" route="r2" depart="578.26"/>
    <vehicle id="veh400" type="passenger" route="r0" depart="579.71"/>
    <vehicle id="veh401" type="passenger" route="r3" depart="581.16"/>
    <vehicle id="veh402" type="passenger" route="r10" depart="582.61"/>
    <vehicle id="veh403" type="passenger" route="r10" depart="584.06"/>
    <vehicle id="veh404" type="emergency" route="r10" depart="585.51"/>
    <vehicle id="veh405" type="passenger" route="r10" depart="586.96"/>
    <vehicle id="veh406" type="passenger" route="r7" depart="588.41"/>
    <vehicle id="veh407" type="passenger" route="r8" depart="589.86"/>
    <vehicle id="veh408" type="passenger" route="r11" depart="591.3"/>
    <vehicle id="veh409" type="passenger" route="r8" depart="592.75"/>
    <vehicle id="veh410" type="passenger" route="r11" depart="594.2"/>
    <vehicle id="veh411" type="passenger" route="r0" depart="595.65"/>