<?xml version="1.0" encoding="UTF-8"?>

<!-- generated on 2026-04-12T19:19:15.869755+05:30 by Eclipse SUMO netconvert 1.26.0
<netconvertConfiguration xmlns:xsi="http://www.w3.org/2001/XMLSchema-instance" xsi:noNamespaceSchemaLocation="http://sumo.dlr.de/xsd/netconvertConfiguration.xsd">

    <input>
        <node-files value="C:\Users\santhosh\OneDrive\Desktop\trafiic pro\web_runs\20260412_191857_812387\area.nod.xml"/>
        <edge-files value="C:\Users\santhosh\OneDrive\Desktop\trafiic pro\web_runs\20260412_191857_812387\area.edg.xml"/>
    </input>

    <output>
        <output-file value="C:\Users\santhosh\OneDrive\Desktop\trafiic pro\web_runs\20260412_191857_812387\area.net.xml"/>
    </output>

    <building_defaults>
        <default.lanewidth value="1.5"/>
    </building_defaults>

    <junctions>
        <junctions.corner-detail value="0"/>
    </junctions>

</netconvertConfiguration>
-->

<net version="1.20" limitTurnSpeed="5.50" xmlns:xsi="http://www.w3.org/2001/XMLSchema-instance" xsi:noNamespaceSchemaLocation="http://sumo.dlr.de/xsd/net_file.xsd">

    <location netOffset="-55.00,-55.00" convBoundary="0.00,0.00,650.10,390.10" origBoundary="55.00,55.00,705.00,445.00" projParameter="!"/>

    <edge id=":J0_0" function="internal">
        <lane id=":J0_0_0" index="0" speed="2.50" length="2.19" width="1.50" shape="0.00,390.75 -0.56,390.38 -0.75,390.00 -0.56,389.62 0.00,389.25"/>
    </edge>
    <edge id=":J1_0" function="internal">
        <lane id=":J1_0_0" index="0" speed="7.61" length="5.31" width="1.50" shape="649.75,390.81 648.77,390.50 647.24,390.52 645.64,390.66 644.50,390.75"/>
    </edge>
    <edge id=":J1_1" function="internal">
        <lane id=":J1_1_0" index="0" speed="8.31" length="6.38" width="1.50" shape="649.75,390.81 649.38,389.67 649.24,387.77 649.23,385.81 649.25,384.50"/>
    </edge>
    <edge id=":J1_2" function="internal">
        <lane id=":J1_2_0" index="0" speed="2.50" length="1.10" width="1.50" shape="649.75,390.81 649.62,390.15 649.75,389.75"/>
    </edge>
    <edge id=":J1_9" function="internal">
        <lane id=":J1_9_0" index="0" speed="2.50" length="1.10" width="1.50" shape="649.75,389.75 650.15,389.62 650.81,389.75"/>
    </edge>
    <edge id=":J1_3" function="internal">
        <lane id=":J1_3_0" index="0" speed="7.61" length="5.31" width="1.50" shape="650.75,384.50 650.66,385.64 650.52,387.24 650.50,388.77 650.81,389.75"/>
    </edge>
    <edge id=":J1_4" function="internal">
        <lane id=":J1_4_0" index="0" speed="6.66" length="10.08" width="1.50" shape="650.75,384.50 650.36,387.23 649.19,389.19 647.23,390.36 644.50,390.75"/>
    </edge>
    <edge id=":J1_5" function="internal">
        <lane id=":J1_5_0" index="0" speed="2.50" length="1.10" width="1.50" shape="650.75,384.50 650.38,385.06 650.00,385.25"/>
    </edge>
    <edge id=":J1_10" function="internal">
        <lane id=":J1_10_0" index="0" speed="2.50" length="1.10" width="1.50" shape="650.00,385.25 649.62,385.06 649.25,384.50"/>
    </edge>
    <edge id=":J1_6" function="internal">
        <lane id=":J1_6_0" index="0" speed="5.85" length="7.66" width="1.50" shape="644.50,389.25 646.58,388.95 648.06,388.06 648.95,386.58 649.25,384.50"/>
    </edge>
    <edge id=":J1_7" function="internal">
        <lane id=":J1_7_0" index="0" speed="8.31" length="6.38" width="1.50" shape="644.50,389.25 645.81,389.23 647.77,389.24 649.67,389.38 650.81,389.75"/>
    </edge>
    <edge id=":J1_8" function="internal">
        <lane id=":J1_8_0" index="0" speed="2.50" length="1.73" width="1.50" shape="644.50,389.25 645.06,389.62 645.25,390.00 645.06,390.38 644.89,390.49"/>
    </edge>
    <edge id=":J1_11" function="internal">
        <lane id=":J1_11_0" index="0" speed="2.50" length="0.46" width="1.50" shape="644.89,390.49 644.50,390.75"/>
    </edge>
    <edge id=":J2_0" function="internal">
        <lane id=":J2_0_0" index="0" speed="3.91" length="5.04" width="1.50" shape="650.75,386.38 650.70,388.70 650.54,390.24 650.27,390.99 649.89,390.95"/>
    </edge>
    <edge id=":J2_1" function="internal">
        <lane id=":J2_1_0" index="0" speed="3.51" length="3.91" width="1.50" shape="650.95,389.89 649.25,386.38"/>
    </edge>
    <edge id=":J3_0" function="internal">
        <lane id=":J3_0_0" index="0" speed="5.85" length="7.66" width="1.50" shape="649.25,129.59 648.95,127.51 648.06,126.03 646.58,125.14 644.50,124.84"/>
    </edge>
    <edge id=":J3_1" function="internal">
        <lane id=":J3_1_0" index="0" speed="13.90" length="11.00" width="1.50" shape="649.25,129.59 649.25,118.59"/>
    </edge>
    <edge id=":J3_2" function="internal">
        <lane id=":J3_2_0" index="0" speed="2.22" length="0.75" width="1.50" shape="649.25,129.59 650.00,129.59"/>
    </edge>
    <edge id=":J3_3" function="internal">
        <lane id=":J3_3_0" index="0" speed="2.50" length="1.87" width="1.50" shape="649.25,129.59 649.62,129.03 650.00,128.84 650.38,129.03 650.57,129.32"/>
    </edge>
    <edge id=":J3_16" function="internal">
        <lane id=":J3_16_0" index="0" speed="2.22" length="0.75" width="1.50" shape="650.00,129.59 650.75,129.59"/>
    </edge>
    <edge id=":J3_17" function="internal">
        <lane id=":J3_17_0" index="0" speed="2.50" length="0.32" width="1.50" shape="650.57,129.32 650.75,129.59"/>
    </edge>
    <edge id=":J3_4" function="internal">
        <lane id=":J3_4_0" index="0" speed="5.85" length="7.66" width="1.50" shape="649.25,129.59 648.95,127.51 648.06,126.03 646.58,125.14 644.50,124.84"/>
    </edge>
    <edge id=":J3_5" function="internal">
        <lane id=":J3_5_0" index="0" speed="13.90" length="11.00" width="1.50" shape="649.25,129.59 649.25,118.59"/>
    </edge>
    <edge id=":J3_6" function="internal">
        <lane id=":J3_6_0" index="0" speed="2.22" length="1.50" width="1.50" shape="649.25,129.59 650.75,129.59"/>
    </edge>
    <edge id=":J3_7" function="internal">
        <lane id=":J3_7_0" index="0" speed="2.50" length="0.68" width="1.50" shape="649.25,129.59 649.62,129.03"/>
    </edge>
    <edge id=":J3_18" function="internal">
        <lane id=":J3_18_0" index="0" speed="2.50" length="1.51" width="1.50" shape="649.62,129.03 650.00,128.84 650.38,129.03 650.75,129.59"/>
    </edge>
    <edge id=":J3_8" function="internal">
        <lane id=":J3_8_0" index="0" speed="13.90" length="11.00" width="1.50" shape="650.75,118.59 650.75,129.59"/>
    </edge>
    <edge id=":J3_9" function="internal">
        <lane id=":J3_9_0" index="0" speed="13.90" length="11.00" width="1.50" shape="650.75,118.59 650.75,129.59"/>
    </edge>
    <edge id=":J3_10" function="internal">
        <lane id=":J3_10_0" index="0" speed="6.66" length="4.71" width="1.50" shape="650.75,118.59 650.36,121.32 649.36,123.00"/>
    </edge>
    <edge id=":J3_11" function="internal">
        <lane id=":J3_11_0" index="0" speed="2.50" length="1.87" width="1.50" shape="650.75,118.59 650.38,119.15 650.00,119.34 649.62,119.15 649.43,118.86"/>
    </edge>
    <edge id=":J3_19" function="internal">
        <lane id=":J3_19_0" index="0" speed="6.66" length="5.37" width="1.50" shape="649.36,123.00 649.19,123.28 647.23,124.45 644.50,124.84"/>
    </edge>
    <edge id=":J3_20" function="internal">
        <lane id=":J3_20_0" index="0" speed="2.50" length="0.32" width="1.50" shape="649.43,118.86 649.25,118.59"/>
    </edge>
    <edge id=":J3_12" function="internal">
        <lane id=":J3_12_0" index="0" speed="5.85" length="7.66" width="1.50" shape="644.50,123.34 646.58,123.04 648.06,122.15 648.95,120.67 649.25,118.59"/>
    </edge>
    <edge id=":J3_13" function="internal">
        <lane id=":J3_13_0" index="0" speed="6.66" length="4.09" width="1.50" shape="644.50,123.34 647.23,123.73 648.37,124.41"/>
    </edge>
    <edge id=":J3_14" function="internal">
        <lane id=":J3_14_0" index="0" speed="6.66" length="2.50" width="1.50" shape="644.50,123.34 646.97,123.69"/>
    </edge>
    <edge id=":J3_15" function="internal">
        <lane id=":J3_15_0" index="0" speed="2.50" length="1.10" width="1.50" shape="644.50,123.34 645.06,123.71 645.25,124.09"/>
    </edge>
    <edge id=":J3_21" function="internal">
        <lane id=":J3_21_0" index="0" speed="6.66" length="5.99" width="1.50" shape="648.37,124.41 649.19,124.90 650.36,126.86 650.75,129.59"/>
    </edge>
    <edge id=":J3_22" function="internal">
        <lane id=":J3_22_0" index="0" speed="6.66" length="7.58" width="1.50" shape="646.97,123.69 647.23,123.73 649.19,124.90 650.36,126.86 650.75,129.59"/>
    </edge>
    <edge id=":J3_23" function="internal">
        <lane id=":J3_23_0" index="0" speed="2.50" length="1.10" width="1.50" shape="645.25,124.09 645.06,124.47 644.50,124.84"/>
    </edge>
    <edge id=":J4_0" function="internal">
        <lane id=":J4_0_0" index="0" speed="2.50" length="2.19" width="1.50" shape="649.25,-0.00 649.62,-0.56 650.00,-0.75 650.38,-0.56 650.75,-0.00"/>
    </edge>
    <edge id=":J5_0" function="internal">
        <lane id=":J5_0_0" index="0" speed="5.85" length="7.66" width="1.50" shape="649.25,76.41 648.95,74.33 648.06,72.85 646.58,71.96 644.50,71.66"/>
    </edge>
    <edge id=":J5_1" function="internal">
        <lane id=":J5_1_0" index="0" speed="13.90" length="11.00" width="1.50" shape="649.25,76.41 649.25,65.41"/>
    </edge>
    <edge id=":J5_2" function="internal">
        <lane id=":J5_2_0" index="0" speed="2.50" length="1.87" width="1.50" shape="649.25,76.41 649.62,75.85 650.00,75.66 650.38,75.85 650.57,76.14"/>
    </edge>
    <edge id=":J5_9" function="internal">
        <lane id=":J5_9_0" index="0" speed="2.50" length="0.32" width="1.50" shape="650.57,76.14 650.75,76.41"/>
    </edge>
    <edge id=":J5_3" function="internal">
        <lane id=":J5_3_0" index="0" speed="13.90" length="11.00" width="1.50" shape="650.75,65.41 650.75,76.41"/>
    </edge>
    <edge id=":J5_4" function="internal">
        <lane id=":J5_4_0" index="0" speed="6.66" length="4.71" width="1.50" shape="650.75,65.41 650.36,68.14 649.36,69.82"/>
    </edge>
    <edge id=":J5_5" function="internal">
        <lane id=":J5_5_0" index="0" speed="2.50" length="1.87" width="1.50" shape="650.75,65.41 650.38,65.97 650.00,66.16 649.62,65.97 649.43,65.68"/>
    </edge>
    <edge id=":J5_10" function="internal">
        <lane id=":J5_10_0" index="0" speed="6.66" length="5.37" width="1.50" shape="649.36,69.82 649.19,70.10 647.23,71.27 644.50,71.66"/>
    </edge>
    <edge id=":J5_11" function="internal">
        <lane id=":J5_11_0" index="0" speed="2.50" length="0.32" width="1.50" shape="649.43,65.68 649.25,65.41"/>
    </edge>
    <edge id=":J5_6" function="internal">
        <lane id=":J5_6_0" index="0" speed="5.85" length="7.66" width="1.50" shape="644.50,70.16 646.58,69.86 648.06,68.97 648.95,67.49 649.25,65.41"/>
    </edge>
    <edge id=":J5_7" function="internal">
        <lane id=":J5_7_0" index="0" speed="6.66" length="10.08" width="1.50" shape="644.50,70.16 647.23,70.55 649.19,71.72 650.36,73.68 650.75,76.41"/>
    </edge>
    <edge id=":J5_8" function="internal">
        <lane id=":J5_8_0" index="0" speed="2.50" length="1.10" width="1.50" shape="644.50,70.16 645.06,70.53 645.25,70.91"/>
    </edge>
    <edge id=":J5_12" function="internal">
        <lane id=":J5_12_0" index="0" speed="2.50" length="1.10" width="1.50" shape="645.25,70.91 645.06,71.28 644.50,71.66"/>
    </edge>
    <edge id=":J6_0" function="internal">
        <lane id=":J6_0_0" index="0" speed="2.50" length="2.19" width="1.50" shape="0.00,124.84 -0.56,124.46 -0.75,124.09 -0.56,123.72 0.00,123.34"/>
    </edge>
    <edge id=":J7_0" function="internal">
        <lane id=":J7_0_0" index="0" speed="2.50" length="2.19" width="1.50" shape="475.61,71.66 475.05,71.28 474.86,70.91 475.05,70.53 475.61,70.16"/>
    </edge>

    <edge id="R0_J0_J1" from="J0" to="J1" priority="-1">
        <lane id="R0_J0_J1_0" index="0" speed="13.90" length="644.50" width="1.50" shape="0.00,389.25 644.50,389.25"/>
    </edge>
    <edge id="R0_J1_J0" from="J1" to="J0" priority="-1">
        <lane id="R0_J1_J0_0" index="0" speed="13.90" length="644.50" width="1.50" shape="644.50,390.75 0.00,390.75"/>
    </edge>
    <edge id="R1_J1_J3" from="J1" to="J3" priority="-1">
        <lane id="R1_J1_J3_0" index="0" speed="13.90" length="254.91" width="1.50" shape="649.25,384.50 649.25,129.59"/>
    </edge>
    <edge id="R1_J3_J1" from="J3" to="J1" priority="-1">
        <lane id="R1_J3_J1_0" index="0" speed="13.90" length="254.91" width="1.50" shape="650.75,129.59 650.75,384.50"/>
    </edge>
    <edge id="R2_J3_J6" from="J3" to="J6" priority="-1">
        <lane id="R2_J3_J6_0" index="0" speed="13.90" length="644.50" width="1.50" shape="644.50,124.84 0.00,124.84"/>
    </edge>
    <edge id="R2_J6_J3" from="J6" to="J3" priority="-1">
        <lane id="R2_J6_J3_0" index="0" speed="13.90" length="644.50" width="1.50" shape="0.00,123.34 644.50,123.34"/>
    </edge>
    <edge id="R3_J1_J2" from="J1" to="J2" priority="-1" shape="650.00,390.00 650.10,390.10">
        <lane id="R3_J1_J2_0" index="0" speed="13.90" length="0.20" width="1.50" shape="650.81,389.75 650.95,389.89"/>
    </edge>
    <edge id="R3_J2_J1" from="J2" to="J1" priority="-1" shape="650.10,390.10 650.00,390.00">
        <lane id="R3_J2_J1_0" index="0" speed="13.90" length="0.20" width="1.50" shape="649.89,390.95 649.75,390.81"/>
    </edge>
    <edge id="R4_J2_J3" from="J2" to="J3" priority="-1">
        <lane id="R4_J2_J3_0" index="0" speed="13.90" length="256.79" width="1.50" shape="649.25,386.38 649.25,129.59"/>
    </edge>
    <edge id="R4_J3_J2" from="J3" to="J2" priority="-1">
        <lane id="R4_J3_J2_0" index="0" speed="13.90" length="256.79" width="1.50" shape="650.75,129.59 650.75,386.38"/>
    </edge>
    <edge id="R5_J3_J5" from="J3" to="J5" priority="-1">
        <lane id="R5_J3_J5_0" index="0" speed="13.90" length="42.18" width="1.50" shape="649.25,118.59 649.25,76.41"/>
    </edge>
    <edge id="R5_J5_J3" from="J5" to="J3" priority="-1">
        <lane id="R5_J5_J3_0" index="0" speed="13.90" length="42.18" width="1.50" shape="650.75,76.41 650.75,118.59"/>
    </edge>
    <edge id="R6_J4_J5" from="J4" to="J5" priority="-1">
        <lane id="R6_J4_J5_0" index="0" speed="13.90" length="65.41" width="1.50" shape="650.75,-0.00 650.75,65.41"/>
    </edge>
    <edge id="R6_J5_J4" from="J5" to="J4" priority="-1">
        <lane id="R6_J5_J4_0" index="0" speed="13.90" length="65.41" width="1.50" shape="649.25,65.41 649.25,-0.00"/>
    </edge>
    <edge id="R7_J5_J7" from="J5" to="J7" priority="-1">
        <lane id="R7_J5_J7_0" index="0" speed="13.90" length="168.89" width="1.50" shape="644.50,71.66 475.61,71.66"/>
    </edge>
    <edge id="R7_J7_J5" from="J7" to="J5" priority="-1">
        <lane id="R7_J7_J5_0" index="0" speed="13.90" length="168.89" width="1.50" shape="475.61,70.16 644.50,70.16"/>
    </edge>

    <tlLogic id="J1" type="static" programID="0" offset="0">
        <phase duration="27" state="GGgGrrrrr"/>
        <phase duration="3"  state="yyyGrrrrr"/>
        <phase duration="27" state="rrrGGgGrr"/>
        <phase duration="3"  state="rrryyyGrr"/>
        <phase duration="27" state="GrrrrrGGg"/>
        <phase duration="3"  state="Grrrrryyy"/>
    </tlLogic>
    <tlLogic id="J2" type="static" programID="0" offset="0">
        <phase duration="90" state="GG"/>
    </tlLogic>
    <tlLogic id="J3" type="static" programID="0" offset="0">
        <phase duration="42" state="GGggrrrrGGggrrrr"/>
        <phase duration="3"  state="yyyyrrrryyyyrrrr"/>
        <phase duration="42" state="rrrrGGGgrrrrgggg"/>
        <phase duration="3"  state="rrrryyyyrrrryyyy"/>
    </tlLogic>
    <tlLogic id="J5" type="static" programID="0" offset="0">
        <phase duration="42" state="GGgGggrrr"/>
        <phase duration="3"  state="Gyyyyyrrr"/>
        <phase duration="42" state="GrrrrrGGg"/>
        <phase duration="3"  state="Grrrrryyy"/>
    </tlLogic>

    <junction id="J0" type="priority" x="0.00" y="390.00" incLanes="R0_J1_J0_0" intLanes=":J0_0_0" shape="0.00,390.00 0.00,391.50 0.00,390.00">
        <request index="0" response="0" foes="0" cont="0"/>
    </junction>
    <junction id="J1" type="traffic_light" x="650.00" y="390.00" incLanes="R3_J2_J1_0 R1_J3_J1_0 R0_J0_J1_0" intLanes=":J1_0_0 :J1_1_0 :J1_9_0 :J1_3_0 :J1_4_0 :J1_10_0 :J1_6_0 :J1_7_0 :J1_11_0" shape="652.21,394.33 654.33,392.21 651.50,384.50 648.50,384.50 644.50,388.50 644.50,391.50">
        <request index="0" response="000000000" foes="100010000" cont="0"/>
        <request index="1" response="000000000" foes="011110000" cont="0"/>
        <request index="2" response="010001000" foes="010001000" cont="1"/>
        <request index="3" response="000000000" foes="010000100" cont="0"/>
        <request index="4" response="000000011" foes="110000011" cont="0"/>
        <request index="5" response="001000010" foes="001000010" cont="1"/>
        <request index="6" response="000000010" foes="000100010" cont="0"/>
        <request index="7" response="000011010" foes="000011110" cont="0"/>
        <request index="8" response="000010001" foes="000010001" cont="1"/>
    </junction>
    <junction id="J2" type="traffic_light" x="650.00" y="390.00" incLanes="R4_J3_J2_0 R3_J1_J2_0" intLanes=":J2_0_0 :J2_1_0" shape="651.50,386.38 648.50,386.38 646.38,388.50">
        <request index="0" response="00" foes="00" cont="0"/>
        <request index="1" response="00" foes="00" cont="0"/>
    </junction>
    <junction id="J3" type="traffic_light" x="650.00" y="124.09" incLanes="R1_J1_J3_0 R4_J2_J3_0 R5_J5_J3_0 R2_J6_J3_0" intLanes=":J3_0_0 :J3_1_0 :J3_16_0 :J3_17_0 :J3_4_0 :J3_5_0 :J3_6_0 :J3_18_0 :J3_8_0 :J3_9_0 :J3_19_0 :J3_20_0 :J3_12_0 :J3_21_0 :J3_22_0 :J3_23_0" shape="648.50,129.59 651.50,129.59 651.50,118.59 648.50,118.59 644.50,122.59 644.50,125.59">
        <request index="0"  response="0000000000000000" foes="1000010000010000" cont="0"/>
        <request index="1"  response="0110000000000000" foes="0111110000110000" cont="0"/>
        <request index="2"  response="0110001100000000" foes="0110001110110000" cont="1"/>
        <request index="3"  response="0100001001000000" foes="0100001001000000" cont="1"/>
        <request index="4"  response="0000011000000111" foes="1100011000000111" cont="0"/>
        <request index="5"  response="0000011000000110" foes="0011111000000110" cont="0"/>
        <request index="6"  response="0000001000000000" foes="0100001000001000" cont="0"/>
        <request index="7"  response="0010000100000100" foes="0010000100000100" cont="1"/>
        <request index="8"  response="0010000000000000" foes="0010000010000100" cont="0"/>
        <request index="9"  response="0110000000000000" foes="0110000001111100" cont="0"/>
        <request index="10" response="0110000000000011" foes="1110000000110011" cont="1"/>
        <request index="11" response="0001000000100010" foes="0001000000100010" cont="1"/>
        <request index="12" response="0000000000100010" foes="0000100000100010" cont="0"/>
        <request index="13" response="0000011100100110" foes="0000011110100110" cont="1"/>
        <request index="14" response="0000011001010110" foes="0000011001011110" cont="1"/>
        <request index="15" response="0000010000010001" foes="0000010000010001" cont="1"/>
    </junction>
    <junction id="J4" type="priority" x="650.00" y="0.00" incLanes="R6_J5_J4_0" intLanes=":J4_0_0" shape="650.00,-0.00 648.50,-0.00 650.00,-0.00">
        <request index="0" response="0" foes="0" cont="0"/>
    </junction>
    <junction id="J5" type="traffic_light" x="650.00" y="70.91" incLanes="R5_J3_J5_0 R6_J4_J5_0 R7_J7_J5_0" intLanes=":J5_0_0 :J5_1_0 :J5_9_0 :J5_3_0 :J5_10_0 :J5_11_0 :J5_6_0 :J5_7_0 :J5_12_0" shape="648.50,76.41 651.50,76.41 651.50,65.41 648.50,65.41 644.50,69.41 644.50,72.41">
        <request index="0" response="000000000" foes="100010000" cont="0"/>
        <request index="1" response="000000000" foes="011110000" cont="0"/>
        <request index="2" response="010001000" foes="010001000" cont="1"/>
        <request index="3" response="000000000" foes="010000100" cont="0"/>
        <request index="4" response="000000011" foes="110000011" cont="1"/>
        <request index="5" response="001000010" foes="001000010" cont="1"/>
        <request index="6" response="000000010" foes="000100010" cont="0"/>
        <request index="7" response="000011010" foes="000011110" cont="0"/>
        <request index="8" response="000010001" foes="000010001" cont="1"/>
    </junction>
    <junction id="J6" type="priority" x="0.00" y="124.09" incLanes="R2_J3_J6_0" intLanes=":J6_0_0" shape="0.00,124.09 0.00,125.59 0.00,124.09">
        <request index="0" response="0" foes="0" cont="0"/>
    </junction>
    <junction id="J7" type="priority" x="475.61" y="70.91" incLanes="R7_J5_J7_0" intLanes=":J7_0_0" shape="475.61,70.91 475.61,72.41 475.61,70.91">
        <request index="0" response="0" foes="0" cont="0"/>
    </junction>

    <junction id=":J1_9_0" type="internal" x="649.75" y="389.75" incLanes=":J1_2_0 R0_J0_J1_0 R1_J3_J1_0" intLanes=":J1_3_0 :J1_7_0"/>
    <junction id=":J1_10_0" type="internal" x="650.00" y="385.25" incLanes=":J1_5_0 R0_J0_J1_0 R3_J2_J1_0" intLanes=":J1_1_0 :J1_6_0"/>
    <junction id=":J1_11_0" type="internal" x="644.89" y="390.49" incLanes=":J1_8_0 R1_J3_J1_0 R3_J2_J1_0" intLanes=":J1_0_0 :J1_4_0"/>
    <junction id=":J3_16_0" type="internal" x="650.00" y="129.59" incLanes=":J3_2_0 R5_J5_J3_0" intLanes=":J3_4_0 :J3_5_0 :J3_7_0 :J3_8_0 :J3_9_0 :J3_13_0 :J3_14_0"/>
    <junction id=":J3_17_0" type="internal" x="650.57" y="129.32" incLanes=":J3_3_0 R2_J6_J3_0 R4_J2_J3_0 R5_J5_J3_0" intLanes=":J3_6_0 :J3_9_0 :J3_14_0"/>
    <junction id=":J3_18_0" type="internal" x="649.62" y="129.03" incLanes=":J3_7_0 R1_J1_J3_0 R2_J6_J3_0 R5_J5_J3_0" intLanes=":J3_2_0 :J3_8_0 :J3_13_0"/>
    <junction id=":J3_19_0" type="internal" x="649.36" y="123.00" incLanes=":J3_10_0 R1_J1_J3_0" intLanes=":J3_0_0 :J3_1_0 :J3_4_0 :J3_5_0 :J3_13_0 :J3_14_0 :J3_15_0"/>
    <junction id=":J3_20_0" type="internal" x="649.43" y="118.86" incLanes=":J3_11_0 R1_J1_J3_0 R2_J6_J3_0 R4_J2_J3_0" intLanes=":J3_1_0 :J3_5_0 :J3_12_0"/>
    <junction id=":J3_21_0" type="internal" x="648.37" y="124.41" incLanes=":J3_13_0 R4_J2_J3_0" intLanes=":J3_1_0 :J3_2_0 :J3_5_0 :J3_7_0 :J3_8_0 :J3_9_0 :J3_10_0"/>
    <junction id=":J3_22_0" type="internal" x="646.97" y="123.69" incLanes=":J3_14_0 R4_J2_J3_0" intLanes=":J3_1_0 :J3_2_0 :J3_3_0 :J3_4_0 :J3_6_0 :J3_9_0 :J3_10_0"/>
    <junction id=":J3_23_0" type="internal" x="645.25" y="124.09" incLanes=":J3_15_0 R1_J1_J3_0 R4_J2_J3_0 R5_J5_J3_0" intLanes=":J3_0_0 :J3_4_0 :J3_10_0"/>
    <junction id=":J5_9_0" type="internal" x="650.57" y="76.14" incLanes=":J5_2_0 R6_J4_J5_0 R7_J7_J5_0" intLanes=":J5_3_0 :J5_7_0"/>
    <junction id=":J5_10_0" type="internal" x="649.36" y="69.82" incLanes=":J5_4_0 R5_J3_J5_0" intLanes=":J5_0_0 :J5_1_0 :J5_7_0 :J5_8_0"/>
    <junction id=":J5_11_0" type="internal" x="649.43" y="65.68" incLanes=":J5_5_0 R5_J3_J5_0 R7_J7_J5_0" intLanes=":J5_1_0 :J5_6_0"/>
    <junction id=":J5_12_0" type="internal" x="645.25" y="70.91" incLanes=":J5_8_0 R5_J3_J5_0 R6_J4_J5_0" intLanes=":J5_0_0 :J5_4_0"/>

    <connection from="R0_J0_J1" to="R1_J1_J3" fromLane="0" toLane="0" via=":J1_6_0" tl="J1" linkIndex="6" dir="r" state="o"/>
    <connection from="R0_J0_J1" to="R3_J1_J2" fromLane="0" toLane="0" via=":J1_7_0" tl="J1" linkIndex="7" dir="l" state="o"/>
    <connection from="R0_J0_J1" to="R0_J1_J0" fromLane="0" toLane="0" via=":J1_8_0" tl="J1" linkIndex="8" dir="t" state="o"/>
    <connection from="R0_J1_J0" to="R0_J0_J1" fromLane="0" toLane="0" via=":J0_0_0" dir="t" state="M"/>
    <connection from="R1_J1_J3" to="R2_J3_J6" fromLane="0" toLane="0" via=":J3_0_0" tl="J3" linkIndex="0" dir="r" state="O"/>
    <connection from="R1_J1_J3" to="R5_J3_J5" fromLane="0" toLane="0" via=":J3_1_0" tl="J3" linkIndex="1" dir="s" state="O"/>
    <connection from="R1_J1_J3" to="R4_J3_J2" fromLane="0" toLane="0" via=":J3_2_0" tl="J3" linkIndex="2" dir="t" state="o"/>
    <connection from="R1_J1_J3" to="R1_J3_J1" fromLane="0" toLane="0" via=":J3_3_0" tl="J3" linkIndex="3" dir="t" state="o"/>
    <connection from="R1_J3_J1" to="R3_J1_J2" fromLane="0" toLane="0" via=":J1_3_0" tl="J1" linkIndex="3" dir="r" state="O"/>
    <connection from="R1_J3_J1" to="R0_J1_J0" fromLane="0" toLane="0" via=":J1_4_0" tl="J1" linkIndex="4" dir="l" state="o"/>
    <connection from="R1_J3_J1" to="R1_J1_J3" fromLane="0" toLane="0" via=":J1_5_0" tl="J1" linkIndex="5" dir="t" state="o"/>
    <connection from="R2_J3_J6" to="R2_J6_J3" fromLane="0" toLane="0" via=":J6_0_0" dir="t" state="M"/>
    <connection from="R2_J6_J3" to="R5_J3_J5" fromLane="0" toLane="0" via=":J3_12_0" tl="J3" linkIndex="12" dir="r" state="o"/>
    <connection from="R2_J6_J3" to="R4_J3_J2" fromLane="0" toLane="0" via=":J3_13_0" tl="J3" linkIndex="13" dir="L" state="o"/>
    <connection from="R2_J6_J3" to="R1_J3_J1" fromLane="0" toLane="0" via=":J3_14_0" tl="J3" linkIndex="14" dir="l" state="o"/>
    <connection from="R2_J6_J3" to="R2_J3_J6" fromLane="0" toLane="0" via=":J3_15_0" tl="J3" linkIndex="15" dir="t" state="o"/>
    <connection from="R3_J1_J2" to="R4_J2_J3" fromLane="0" toLane="0" via=":J2_1_0" tl="J2" linkIndex="1" dir="r" state="O"/>
    <connection from="R3_J2_J1" to="R0_J1_J0" fromLane="0" toLane="0" via=":J1_0_0" tl="J1" linkIndex="0" dir="r" state="O"/>
    <connection from="R3_J2_J1" to="R1_J1_J3" fromLane="0" toLane="0" via=":J1_1_0" tl="J1" linkIndex="1" dir="l" state="O"/>
    <connection from="R3_J2_J1" to="R3_J1_J2" fromLane="0" toLane="0" via=":J1_2_0" tl="J1" linkIndex="2" dir="t" state="o"/>
    <connection from="R4_J2_J3" to="R2_J3_J6" fromLane="0" toLane="0" via=":J3_4_0" tl="J3" linkIndex="4" dir="R" state="o"/>
    <connection from="R4_J2_J3" to="R5_J3_J5" fromLane="0" toLane="0" via=":J3_5_0" tl="J3" linkIndex="5" dir="s" state="o"/>
    <connection from="R4_J2_J3" to="R1_J3_J1" fromLane="0" toLane="0" via=":J3_6_0" tl="J3" linkIndex="6" dir="t" state="o"/>
    <connection from="R4_J2_J3" to="R4_J3_J2" fromLane="0" toLane="0" via=":J3_7_0" tl="J3" linkIndex="7" dir="t" state="o"/>
    <connection from="R4_J3_J2" to="R3_J2_J1" fromLane="0" toLane="0" via=":J2_0_0" tl="J2" linkIndex="0" dir="l" state="O"/>
    <connection from="R5_J3_J5" to="R7_J5_J7" fromLane="0" toLane="0" via=":J5_0_0" tl="J5" linkIndex="0" dir="r" state="O"/>
    <connection from="R5_J3_J5" to="R6_J5_J4" fromLane="0" toLane="0" via=":J5_1_0" tl="J5" linkIndex="1" dir="s" state="O"/>
    <connection from="R5_J3_J5" to="R5_J5_J3" fromLane="0" toLane="0" via=":J5_2_0" tl="J5" linkIndex="2" dir="t" state="o"/>
    <connection from="R5_J5_J3" to="R4_J3_J2" fromLane="0" toLane="0" via=":J3_8_0" tl="J3" linkIndex="8" dir="s" state="O"/>
    <connection from="R5_J5_J3" to="R1_J3_J1" fromLane="0" toLane="0" via=":J3_9_0" tl="J3" linkIndex="9" dir="s" state="O"/>
    <connection from="R5_J5_J3" to="R2_J3_J6" fromLane="0" toLane="0" via=":J3_10_0" tl="J3" linkIndex="10" dir="l" state="o"/>
    <connection from="R5_J5_J3" to="R5_J3_J5" fromLane="0" toLane="0" via=":J3_11_0" tl="J3" linkIndex="11" dir="t" state="o"/>
    <connection from="R6_J4_J5" to="R5_J5_J3" fromLane="0" toLane="0" via=":J5_3_0" tl="J5" linkIndex="3" dir="s" state="O"/>
    <connection from="R6_J4_J5" to="R7_J5_J7" fromLane="0" toLane="0" via=":J5_4_0" tl="J5" linkIndex="4" dir="l" state="o"/>
    <connection from="R6_J4_J5" to="R6_J5_J4" fromLane="0" toLane="0" via=":J5_5_0" tl="J5" linkIndex="5" dir="t" state="o"/>
    <connection from="R6_J5_J4" to="R6_J4_J5" fromLane="0" toLane="0" via=":J4_0_0" dir="t" state="M"/>
    <connection from="R7_J5_J7" to="R7_J7_J5" fromLane="0" toLane="0" via=":J7_0_0" dir="t" state="M"/>
    <connection from="R7_J7_J5" to="R6_J5_J4" fromLane="0" toLane="0" via=":J5_6_0" tl="J5" linkIndex="6" dir="r" state="o"/>
    <connection from="R7_J7_J5" to="R5_J5_J3" fromLane="0" toLane="0" via=":J5_7_0" tl="J5" linkIndex="7" dir="l" state="o"/>
    <connection from="R7_J7_J5" to="R7_J5_J7" fromLane="0" toLane="0" via=":J5_8_0" tl="J5" linkIndex="8" dir="t" state="o"/>

    <connection from=":J0_0" to="R0_J0_J1" fromLane="0" toLane="0" dir="t" state="M"/>
    <connection from=":J1_0" to="R0_J1_J0" fromLane="0" toLane="0" dir="r" state="M"/>
    <connection from=":J1_1" to="R1_J1_J3" fromLane="0" toLane="0" dir="l" state="M"/>
    <connection from=":J1_2" to="R3_J1_J2" fromLane="0" toLane="0" via=":J1_9_0" dir="t" state="m"/>
    <connection from=":J1_9" to="R3_J1_J2" fromLane="0" toLane="0" dir="t" state="M"/>
    <connection from=":J1_3" to="R3_J1_J2" fromLane="0" toLane="0" dir="r" state="M"/>
    <connection from=":J1_4" to="R0_J1_J0" fromLane="0" toLane="0" dir="l" state="M"/>
    <connection from=":J1_5" to="R1_J1_J3" fromLane="0" toLane="0" via=":J1_10_0" dir="t" state="m"/>
    <connection from=":J1_10" to="R1_J1_J3" fromLane="0" toLane="0" dir="t" state="M"/>
    <connection from=":J1_6" to="R1_J1_J3" fromLane="0" toLane="0" dir="r" state="M"/>
    <connection from=":J1_7" to="R3_J1_J2" fromLane="0" toLane="0" dir="l" state="M"/>
    <connection from=":J1_8" to="R0_J1_J0" fromLane="0" toLane="0" via=":J1_11_0" dir="t" state="m"/>
    <connection from=":J1_11" to="R0_J1_J0" fromLane="0" toLane="0" dir="t" state="M"/>
    <connection from=":J2_0" to="R3_J2_J1" fromLane="0" toLane="0" dir="l" state="M"/>
    <connection from=":J2_1" to="R4_J2_J3" fromLane="0" toLane="0" dir="r" state="M"/>
    <connection from=":J3_0" to="R2_J3_J6" fromLane="0" toLane="0" dir="r" state="M"/>
    <connection from=":J3_1" to="R5_J3_J5" fromLane="0" toLane="0" dir="s" state="M"/>
    <connection from=":J3_2" to="R4_J3_J2" fromLane="0" toLane="0" via=":J3_16_0" dir="t" state="m"/>
    <connection from=":J3_16" to="R4_J3_J2" fromLane="0" toLane="0" dir="t" state="M"/>
    <connection from=":J3_3" to="R1_J3_J1" fromLane="0" toLane="0" via=":J3_17_0" dir="t" state="m"/>
    <connection from=":J3_17" to="R1_J3_J1" fromLane="0" toLane="0" dir="t" state="M"/>