<edges>
    <edge id="E0_P0_P2" from="P0" to="P2" numLanes="1" speed="13.9" shape="50.0,230.0 650.0,230.0"/>
    <edge id="E0_P2_P0" from="P2" to="P0" numLanes="1" speed="13.9" shape="650.0,230.0 50.0,230.0"/>
    <edge id="E1_P1_P3" from="P1" to="P3" numLanes="1" speed="13.9" shape="50.0,50.0 650.0,50.0"/>
    <edge id="E1_P3_P1" from="P3" to="P1" numLanes="1" speed="13.9" shape="650.0,50.0 50.0,50.0"/>
    <edge id="E2_P4_P0" from="P4" to="P0" numLanes="1" speed="13.9" shape="50.0,410.0 50.0,230.0"/>
    <edge id="E2_P0_P4" from="P0" to="P4" numLanes="1" speed="13.9" shape="50.0,230.0 50.0,410.0"/>
    <edge id="E3_P0_P1" from="P0" to="P1" numLanes="1" speed="13.9" shape="50.0,230.0 50.0,50.0"/>
    <edge id="E3_P1_P0" from="P1" to="P0" numLanes="1" speed="13.9" shape="50.0,50.0 50.0,230.0"/>
</edges>