<?xml version="1.0" encoding="UTF-8"?>

<!-- generated on 2026-04-12T18:39:53.897404+05:30 by Eclipse SUMO netconvert 1.26.0
<netconvertConfiguration xmlns:xsi="http://www.w3.org/2001/XMLSchema-instance" xsi:noNamespaceSchemaLocation="http://sumo.dlr.de/xsd/netconvertConfiguration.xsd">

    <input>
        <node-files value="C:\Users\santhosh\OneDrive\Desktop\trafiic pro\web_runs\20260412_183953_624750\area.nod.xml"/>
        <edge-files value="C:\Users\santhosh\OneDrive\Desktop\trafiic pro\web_runs\20260412_183953_624750\area.edg.xml"/>
    </input>

    <output>
        <output-file value="C:\Users\santhosh\OneDrive\Desktop\trafiic pro\web_runs\20260412_183953_624750\area.net.xml"/>
    </output>

    <building_defaults>
        <default.lanewidth value="1.5"/>
    </building_defaults>

    <junctions>
        <junctions.corner-detail value="0"/>
    </junctions>

</netconvertConfiguration>
-->

<net version="1.20" limitTurnSpeed="5.50" xmlns:xsi="http://www.w3.org/2001/XMLSchema-instance" xsi:noNamespaceSchemaLocation="http://sumo.dlr.de/xsd/net_file.xsd">

    <location netOffset="-50.00,-50.00" convBoundary="0.00,0.00,600.00,360.00" origBoundary="50.00,50.00,650.00,410.00" projParameter="!"/>

    <edge id=":P0_0" function="internal">
        <lane id=":P0_0_0" index="0" speed="13.90" length="11.00" width="1.50" shape="-0.75,185.50 -0.75,174.50"/>
    </edge>
    <edge id=":P0_1" function="internal">
        <lane id=":P0_1_0" index="0" speed="6.66" length="4.71" width="1.50" shape="-0.75,185.50 -0.36,182.77 0.64,181.09"/>
    </edge>
    <edge id=":P0_2" function="internal">
        <lane id=":P0_2_0" index="0" speed="2.50" length="1.87" width="1.50" shape="-0.75,185.50 -0.38,184.94 0.00,184.75 0.38,184.94 0.57,185.23"/>
    </edge>
    <edge id=":P0_9" function="internal">
        <lane id=":P0_9_0" index="0" speed="6.66" length="5.37" width="1.50" shape="0.64,181.09 0.81,180.81 2.77,179.64 5.50,179.25"/>
    </edge>
    <edge id=":P0_10" function="internal">
        <lane id=":P0_10_0" index="0" speed="2.50" length="0.32" width="1.50" shape="0.57,185.23 0.75,185.50"/>
    </edge>
    <edge id=":P0_3" function="internal">
        <lane id=":P0_3_0" index="0" speed="5.85" length="7.66" width="1.50" shape="5.50,180.75 3.42,181.05 1.94,181.94 1.05,183.42 0.75,185.50"/>
    </edge>
    <edge id=":P0_4" function="internal">
        <lane id=":P0_4_0" index="0" speed="6.66" length="10.08" width="1.50" shape="5.50,180.75 2.77,180.36 0.81,179.19 -0.36,177.23 -0.75,174.50"/>
    </edge>
    <edge id=":P0_5" function="internal">
        <lane id=":P0_5_0" index="0" speed="2.50" length="1.10" width="1.50" shape="5.50,180.75 4.94,180.38 4.75,180.00"/>
    </edge>
    <edge id=":P0_11" function="internal">
        <lane id=":P0_11_0" index="0" speed="2.50" length="1.10" width="1.50" shape="4.75,180.00 4.94,179.62 5.50,179.25"/>
    </edge>
    <edge id=":P0_6" function="internal">
        <lane id=":P0_6_0" index="0" speed="5.85" length="7.66" width="1.50" shape="0.75,174.50 1.05,176.58 1.94,178.06 3.42,178.95 5.50,179.25"/>
    </edge>
    <edge id=":P0_7" function="internal">
        <lane id=":P0_7_0" index="0" speed="13.90" length="11.00" width="1.50" shape="0.75,174.50 0.75,185.50"/>
    </edge>
    <edge id=":P0_8" function="internal">
        <lane id=":P0_8_0" index="0" speed="2.50" length="1.87" width="1.50" shape="0.75,174.50 0.38,175.06 0.00,175.25 -0.38,175.06 -0.57,174.77"/>
    </edge>
    <edge id=":P0_12" function="internal">
        <lane id=":P0_12_0" index="0" speed="2.50" length="0.32" width="1.50" shape="-0.57,174.77 -0.75,174.50"/>
    </edge>
    <edge id=":P1_0" function="internal">
        <lane id=":P1_0_0" index="0" speed="4.16" length="3.63" width="1.50" shape="-0.75,1.50 -0.61,0.52 -0.19,-0.19 0.52,-0.61 1.50,-0.75"/>
    </edge>
    <edge id=":P1_1" function="internal">
        <lane id=":P1_1_0" index="0" speed="2.67" length="1.21" width="1.50" shape="1.50,0.75 1.17,0.80 0.94,0.94 0.80,1.17 0.75,1.50"/>
    </edge>
    <edge id=":P2_0" function="internal">
        <lane id=":P2_0_0" index="0" speed="2.50" length="2.19" width="1.50" shape="600.00,179.25 600.56,179.62 600.75,180.00 600.56,180.38 600.00,180.75"/>
    </edge>
    <edge id=":P3_0" function="internal">
        <lane id=":P3_0_0" index="0" speed="2.50" length="2.19" width="1.50" shape="600.00,-0.75 600.56,-0.38 600.75,0.00 600.56,0.38 600.00,0.75"/>
    </edge>
    <edge id=":P4_0" function="internal">
        <lane id=":P4_0_0" index="0" speed="2.50" length="2.19" width="1.50" shape="0.75,360.00 0.38,360.56 0.00,360.75 -0.38,360.56 -0.75,360.00"/>
    </edge>

    <edge id="E0_P0_P2" from="P0" to="P2" priority="-1">
        <lane id="E0_P0_P2_0" index="0" speed="13.90" length="594.50" width="1.50" shape="5.50,179.25 600.00,179.25"/>
    </edge>
    <edge id="E0_P2_P0" from="P2" to="P0" priority="-1">
        <lane id="E0_P2_P0_0" index="0" speed="13.90" length="594.50" width="1.50" shape="600.00,180.75 5.50,180.75"/>
    </edge>
    <edge id="E1_P1_P3" from="P1" to="P3" priority="-1">
        <lane id="E1_P1_P3_0" index="0" speed="13.90" length="598.50" width="1.50" shape="1.50,-0.75 600.00,-0.75"/>
    </edge>
    <edge id="E1_P3_P1" from="P3" to="P1" priority="-1">
        <lane id="E1_P3_P1_0" index="0" speed="13.90" length="598.50" width="1.50" shape="600.00,0.75 1.50,0.75"/>
    </edge>
    <edge id="E2_P0_P4" from="P0" to="P4" priority="-1">
        <lane id="E2_P0_P4_0" index="0" speed="13.90" length="174.50" width="1.50" shape="0.75,185.50 0.75,360.00"/>
    </edge>
    <edge id="E2_P4_P0" from="P4" to="P0" priority="-1">
        <lane id="E2_P4_P0_0" index="0" speed="13.90" length="174.50" width="1.50" shape="-0.75,360.00 -0.75,185.50"/>
    </edge>
    <edge id="E3_P0_P1" from="P0" to="P1" priority="-1">
        <lane id="E3_P0_P1_0" index="0" speed="13.90" length="173.00" width="1.50" shape="-0.75,174.50 -0.75,1.50"/>
    </edge>
    <edge id="E3_P1_P0" from="P1" to="P0" priority="-1">
        <lane id="E3_P1_P0_0" index="0" speed="13.90" length="173.00" width="1.50" shape="0.75,1.50 0.75,174.50"/>
    </edge>

    <tlLogic id="P0" type="static" programID="0" offset="0">
        <phase duration="42" state="GggrrrGGg"/>
        <phase duration="3"  state="yyyrrrGyy"/>
        <phase duration="42" state="rrrGGgGrr"/>
        <phase duration="3"  state="rrryyyGrr"/>
    </tlLogic>

    <junction id="P0" type="traffic_light" x="0.00" y="180.00" incLanes="E2_P4_P0_0 E0_P2_P0_0 E3_P1_P0_0" intLanes=":P0_0_0 :P0_9_0 :P0_10_0 :P0_3_0 :P0_4_0 :P0_11_0 :P0_6_0 :P0_7_0 :P0_12_0" shape="-1.50,185.50 1.50,185.50 5.50,181.50 5.50,178.50 1.50,174.50 -1.50,174.50">
        <request index="0" response="000000000" foes="100010000" cont="0"/>
        <request index="1" response="011000000" foes="011110000" cont="1"/>
        <request index="2" response="010001000" foes="010001000" cont="1"/>
        <request index="3" response="010000000" foes="010000100" cont="0"/>
        <request index="4" response="010000011" foes="110000011" cont="0"/>
        <request index="5" response="001000010" foes="001000010" cont="1"/>
        <request index="6" response="000000000" foes="000100010" cont="0"/>
        <request index="7" response="000000000" foes="000011110" cont="0"/>
        <request index="8" response="000010001" foes="000010001" cont="1"/>
    </junction>
    <junction id="P1" type="priority" x="0.00" y="0.00" incLanes="E3_P0_P1_0 E1_P3_P1_0" intLanes=":P1_0_0 :P1_1_0" shape="-1.50,1.50 1.50,1.50 1.50,-1.50">
        <request index="0" response="00" foes="00" cont="0"/>
        <request index="1" response="00" foes="00" cont="0"/>
    </junction>
    <junction id="P2" type="priority" x="600.00" y="180.00" incLanes="E0_P0_P2_0" intLanes=":P2_0_0" shape="600.00,180.00 600.00,178.50 600.00,180.00">
        <request index="0" response="0" foes="0" cont="0"/>
    </junction>
    <junction id="P3" type="priority" x="600.00" y="0.00" incLanes="E1_P1_P3_0" intLanes=":P3_0_0" shape="600.00,0.00 600.00,-1.50 600.00,0.00">
        <request index="0" response="0" foes="0" cont="0"/>
    </junction>
    <junction id="P4" type="priority" x="0.00" y="360.00" incLanes="E2_P0_P4_0" intLanes=":P4_0_0" shape="0.00,360.00 1.50,360.00 0.00,360.00">
        <request index="0" response="0" foes="0" cont="0"/>
    </junction>

    <junction id=":P0_9_0" type="internal" x="0.64" y="181.09" incLanes=":P0_1_0 E3_P1_P0_0" intLanes=":P0_4_0 :P0_5_0 :P0_6_0 :P0_7_0"/>
    <junction id=":P0_10_0" type="internal" x="0.57" y="185.23" incLanes=":P0_2_0 E0_P2_P0_0 E3_P1_P0_0" intLanes=":P0_3_0 :P0_7_0"/>
    <junction id=":P0_11_0" type="internal" x="4.75" y="180.00" incLanes=":P0_5_0 E2_P4_P0_0 E3_P1_P0_0" intLanes=":P0_1_0 :P0_6_0"/>
    <junction id=":P0_12_0" type="internal" x="-0.57" y="174.77" incLanes=":P0_8_0 E0_P2_P0_0 E2_P4_P0_0" intLanes=":P0_0_0 :P0_4_0"/>

    <connection from="E0_P0_P2" to="E0_P2_P0" fromLane="0" toLane="0" via=":P2_0_0" dir="t" state="M"/>
    <connection from="E0_P2_P0" to="E2_P0_P4" fromLane="0" toLane="0" via=":P0_3_0" tl="P0" linkIndex="3" dir="r" state="o"/>
    <connection from="E0_P2_P0" to="E3_P0_P1" fromLane="0" toLane="0" via=":P0_4_0" tl="P0" linkIndex="4" dir="l" state="o"/>
    <connection from="E0_P2_P0" to="E0_P0_P2" fromLane="0" toLane="0" via=":P0_5_0" tl="P0" linkIndex="5" dir="t" state="o"/>
    <connection from="E1_P1_P3" to="E1_P3_P1" fromLane="0" toLane="0" via=":P3_0_0" dir="t" state="M"/>
    <connection from="E1_P3_P1" to="E3_P1_P0" fromLane="0" toLane="0" via=":P1_1_0" dir="r" state="M"/>
    <connection from="E2_P0_P4" to="E2_P4_P0" fromLane="0" toLane="0" via=":P4_0_0" dir="t" state="M"/>
    <connection from="E2_P4_P0" to="E3_P0_P1" fromLane="0" toLane="0" via=":P0_0_0" tl="P0" linkIndex="0" dir="s" state="O"/>
    <connection from="E2_P4_P0" to="E0_P0_P2" fromLane="0" toLane="0" via=":P0_1_0" tl="P0" linkIndex="1" dir="l" state="o"/>
    <connection from="E2_P4_P0" to="E2_P0_P4" fromLane="0" toLane="0" via=":P0_2_0" tl="P0" linkIndex="2" dir="t" state="o"/>
    <connection from="E3_P0_P1" to="E1_P1_P3" fromLane="0" toLane="0" via=":P1_0_0" dir="l" state="M"/>
    <connection from="E3_P1_P0" to="E0_P0_P2" fromLane="0" toLane="0" via=":P0_6_0" tl="P0" linkIndex="6" dir="r" state="O"/>
    <connection from="E3_P1_P0" to="E2_P0_P4" fromLane="0" toLane="0" via=":P0_7_0" tl="P0" linkIndex="7" dir="s" state="O"/>
    <connection from="E3_P1_P0" to="E3_P0_P1" fromLane="0" toLane="0" via=":P0_8_0" tl="P0" linkIndex="8" dir="t" state="o"/>

    <connection from=":P0_0" to="E3_P0_P1" fromLane="0" toLane="0" dir="s" state="M"/>
    <connection from=":P0_1" to="E0_P0_P2" fromLane="0" toLane="0" via=":P0_9_0" dir="l" state="m"/>
    <connection from=":P0_9" to="E0_P0_P2" fromLane="0" toLane="0" dir="l" state="M"/>
    <connection from=":P0_2" to="E2_P0_P4" fromLane="0" toLane="0" via=":P0_10_0" dir="t" state="m"/>
    <connection from=":P0_10" to="E2_P0_P4" fromLane="0" toLane="0" dir="t" state="M"/>
    <connection from=":P0_3" to="E2_P0_P4" fromLane="0" toLane="0" dir="r" state="M"/>
    <connection from=":P0_4" to="E3_P0_P1" fromLane="0" toLane="0" dir="l" state="M"/>
    <connection from=":P0_5" to="E0_P0_P2" fromLane="0" toLane="0" via=":P0_11_0" dir="t" state="m"/>
    <connection from=":P0_11" to="E0_P0_P2" fromLane="0" toLane="0" dir="t" state="M"/>
    <connection from=":P0_6" to="E0_P0_P2" fromLane="0" toLane="0" dir="r" state="M"/>
    <connection from=":P0_7" to="E2_P0_P4" fromLane="0" toLane="0" dir="s" state="M"/>
    <connection from=":P0_8" to="E3_P0_P1" fromLane="0" toLane="0" via=":P0_12_0" dir="t" state="m"/>
    <connection from=":P0_12" to="E3_P0_P1" fromLane="0" toLane="0" dir="t" state="M"/>
    <connection from=":P1_0" to="E1_P1_P3" fromLane="0" toLane="0" dir="l" state="M"/>
    <connection from=":P1_1" to="E3_P1_P0" fromLane="0" toLane="0" dir="r" state="M"/>
    <connection from=":P2_0" to="E0_P2_P0" fromLane="0" toLane="0" dir="t" state="M"/>
    <connection from=":P3_0" to="E1_P3_P1" fromLane="0" toLane="0" dir="t" state="M"/>
    <connection from=":P4_0" to="E2_P4_P0" fromLane="0" toLane="0" dir="t" state="M"/>

</net>
