<routes>
    <vType id="passenger" accel="2.8" decel="4.6" sigma="0.4" length="5" maxSpeed="16.7"/>
    <vType id="emergency" accel="3.2" decel="5.0" sigma="0.2" length="5" maxSpeed="18.0" color="1,0,0"/>
    <route id="upper_east" edges="WU_to_J0 J0_to_J1 J1_to_EU"/>
    <route id="upper_west" edges="EU_to_J1 J1_to_J0 J0_to_WU"/>
    <route id="middle_east" edges="WM_to_J2 J2_to_J3 J3_to_J4 J4_to_EM"/>
    <route id="middle_west" edges="EM_to_J4 J4_to_J3 J3_to_J2 J2_to_WM"/>
    <route id="lower_east" edges="WL_to_J5 J5_to_J6 J6_to_J7 J7_to_EL"/>
    <route id="lower_west" edges="EL_to_J7 J7_to_J6 J6_to_J5 J5_to_WL"/>
    <route id="north_south" edges="N_to_J1 J1_to_J3 J3_to_J6 J6_to_S"/>
    <route id="south_north" edges="S_to_J6 J6_to_J3 J3_to_J1 J1_to_N"/>
    <route id="north_middle_east" edges="N_to_J1 J1_to_J3 J3_to_J4 J4_to_EM"/>
    <route id="west_middle_south" edges="WM_to_J2 J2_to_J3 J3_to_J6 J6_to_S"/>
    <route id="upper_to_south" edges="WU_to_J0 J0_to_J1 J1_to_J3 J3_to_J6 J6_to_S"/>
    <route id="lower_to_north" edges="WL_to_J5 J5_to_J2 J2_to_J0 J0_to_J1 J1_to_N"/>
    <route id="middle_diagonal_east" edges="WM_to_J2 J2_to_J6 J6_to_J7 J7_to_EL"/>
    <route id="lower_to_middle_east" edges="WL_to_J5 J5_to_J6 J6_to_J3 J3_to_J4 J4_to_EM"/>
    <route id="east_to_south" edges="EM_to_J4 J4_to_J3 J3_to_J6 J6_to_S"/>
    <route id="east_to_upper_west" edges="EM_to_J4 J4_to_J3 J3_to_J1 J1_to_J0 J0_to_WU"/>
    <vehicle id="veh0" type="passenger" route="north_middle_east" depart="3.33"/>
    <vehicle id="veh1" type="passenger" route="upper_to_south" depart="3.34"/>
    <vehicle id="veh2" type="passenger" route="south_north" depart="5.28"/>
    <vehicle id="veh3" type="passenger" route="north_south" depart="6.1"/>
    <vehicle id="veh4" type="passenger" route="south_north" depart="7.18"/>
    <vehicle id="veh5" type="passenger" route="north_south" depart="13.18"/>
    <vehicle id="veh6" type="passenger" route="south_north" depart="13.37"/>
    <vehicle id="veh7" type="passenger" route="upper_to_south" depart="13.76"/>
    <vehicle id="veh8" type="passenger" route="lower_to_north" depart="14.28"/>
    <vehicle id="veh9" type="passenger" route="south_north" depart="14.54"/>
    <vehicle id="veh10" type="passenger" route="upper_to_south" depart="15.38"/>
    <vehicle id="veh11" type="passenger" route="west_middle_south" depart="17.79"/>
    <vehicle id="veh12" type="passenger" route="lower_west" depart="19.06"/>
    <vehicle id="veh13" type="passenger" route="south_north" depart="20.46"/>
    <vehicle id="veh14" type="passenger" route="east_to_upper_west" depart="20.8"/>
    <vehicle id="veh15" type="passenger" route="west_middle_south" depart="21.74"/>
    <vehicle id="veh16" type="passenger" route="north_south" depart="22.29"/>
    <vehicle id="veh17" type="passenger" route="west_middle_south" depart="22.93"/>
    <vehicle id="veh18" type="passenger" route="north_south" depart="23.76"/>
    <vehicle id="veh19" type="passenger" route="north_south" depart="24.04"/>
    <vehicle id="veh20" type="passenger" route="north_middle_east" depart="24.3"/>
    <vehicle id="veh21" type="passenger" route="south_north" depart="25.27"/>
    <vehicle id="veh22" type="passenger" route="south_north" depart="25.84"/>
    <vehicle id="veh23" type="passenger" route="middle_west" depart="26.25"/>
    <vehicle id="veh24" type="passenger" route="middle_diagonal_east" depart="26.41"/>
    <vehicle id="veh25" type="passenger" route="south_north" depart="27.04"/>
    <vehicle id="veh26" type="passenger" route="west_middle_south" depart="27.64"/>
    <vehicle id="veh27" type="passenger" route="north_south" depart="28.68"/>
    <vehicle id="veh28" type="passenger" route="south_north" depart="29.65"/>
    <vehicle id="veh29" type="emergency" route="south_north" depart="30.56"/>
    <vehicle id="veh30" type="passenger" route="north_south" depart="31.16"/>
    <vehicle id="veh31" type="passenger" route="middle_west" depart="31.56"/>
    <vehicle id="veh32" type="passenger" route="lower_west" depart="32.8"/>
    <vehicle id="veh33" type="passenger" route="north_south" depart="32.99"/>
    <vehicle id="veh34" type="passenger" route="north_south" depart="33.02"/>
    <vehicle id="veh35" type="passenger" route="west_middle_south" depart="33.05"/>
    <vehicle id="veh36" type="passenger" route="north_south" depart="33.52"/>
    <vehicle id="veh37" type="passenger" route="south_north" depart="34.23"/>
    <vehicle id="veh38" type="passenger" route="north_south" depart="35.14"/>
    <vehicle id="veh39" type="passenger" route="lower_to_north" depart="35.3"/>
    <vehicle id="veh40" type="passenger" route="north_south" depart="35.55"/>
    <vehicle id="veh41" type="passenger" route="north_south" depart="35.9"/>
    <vehicle id="veh42" type="passenger" route="north_south" depart="37.23"/>
    <vehicle id="veh43" type="passenger" route="middle_east" depart="37.39"/>
    <vehicle id="veh44" type="passenger" route="south_north" depart="38.36"/>
    <vehicle id="veh45" type="passenger" route="south_north" depart="38.57"/>
    <vehicle id="veh46" type="passenger" route="lower_east" depart="39.83"/>
    <vehicle id="veh47" type="passenger" route="middle_east" depart="41.05"/>
    <vehicle id="veh48" type="passenger" route="south_north" depart="41.63"/>
    <vehicle id="veh49" type="passenger" route="west_middle_south" depart="42.69"/>
    <vehicle id="veh50" type="passenger" route="middle_west" depart="42.82"/>
    <vehicle id="veh51" type="passenger" route="south_north" depart="43.35"/>
    <vehicle id="veh52" type="passenger" route="east_to_upper_west" depart="44.1"/>
    <vehicle id="veh53" type="passenger" route="north_middle_east" depart="44.25"/>
    <vehicle id="veh54" type="passenger" route="lower_to_north" depart="44.31"/>
    <vehicle id="veh55" type="passenger" route="lower_west" depart="44.57"/>
    <vehicle id="veh56" type="passenger" route="north_south" depart="44.6"/>
    <vehicle id="veh57" type="passenger" route="north_middle_east" depart="44.91"/>
    <vehicle id="veh58" type="passenger" route="south_north" depart="45.19"/>
    <vehicle id="veh59" type="passenger" route="south_north" depart="45.57"/>
    <vehicle id="veh60" type="passenger" route="lower_west" depart="45.83"/>
    <vehicle id="veh61" type="passenger" route="north_south" depart="45.91"/>
    <vehicle id="veh62" type="passenger" route="north_south" depart="46.19"/>
    <vehicle id="veh63" type="passenger" route="lower_west" depart="46.57"/>
    <vehicle id="veh64" type="passenger" route="south_north" depart="46.63"/>
    <vehicle id="veh65" type="passenger" route="east_to_upper_west" depart="46.66"/>
    <vehicle id="veh66" type="passenger" route="north_south" depart="47.07"/>
    <vehicle id="veh67" type="passenger" route="north_south" depart="47.61"/>
    <vehicle id="veh68" type="passenger" route="lower_east" depart="47.66"/>
    <vehicle id="veh69" type="passenger" route="north_middle_east" depart="48.52"/>
    <vehicle id="veh70" type="passenger" route="east_to_upper_west" depart="49.02"/>
    <vehicle id="veh71" type="passenger" route="north_south" depart="49.13"/>
    <vehicle id="veh72" type="passenger" route="east_to_south" depart="49.2"/>
    <vehicle id="veh73" type="passenger" route="south_north" depart="49.31"/>
    <vehicle id="veh74" type="passenger" route="north_south" depart="49.75"/>
    <vehicle id="veh75" type="passenger" route="east_to_south" depart="49.76"/>
    <vehicle id="veh76" type="passenger" route="upper_west" depart="49.93"/>
    <vehicle id="veh77" type="passenger" route="south_north" depart="50.11"/>
    <vehicle id="veh78" type="passenger" route="upper_to_south" depart="50.27"/>
    <vehicle id="veh79" type="passenger" route="upper_east" depart="50.36"/>
    <vehicle id="veh80" type="passenger" route="upper_east" depart="50.71"/>
    <vehicle id="veh81" type="passenger" route="west_middle_south" depart="50.96"/>
    <vehicle id="veh82" type="passenger" route="south_north" depart="51.31"/>
    <vehicle id="veh83" type="passenger" route="middle_east" depart="51.44"/>
    <vehicle id="veh84" type="passenger" route="east_to_upper_west" depart="51.7"/>
    <vehicle id="veh85" type="passenger" route="south_north" depart="52.18"/>
    <vehicle id="veh86" type="passenger" route="west_middle_south" depart="52.77"/>
    <vehicle id="veh87" type="passenger" route="middle_west" depart="52.94"/>
    <vehicle id="veh88" type="passenger" route="north_south" depart="52.99"/>
    <vehicle id="veh89" type="passenger" route="north_south" depart="53.07"/>
    <vehicle id="veh90" type="passenger" route="south_north" depart="53.33"/>
    <vehicle id="veh91" type="passenger" route="north_south" depart="53.4"/>
    <vehicle id="veh92" type="passenger" route="upper_to_south" depart="54.42"/>
    <vehicle id="veh93" type="passenger" route="north_south" depart="54.43"/>
    <vehicle id="veh94" type="passenger" route="upper_west" depart="54.47"/>
    <vehicle id="veh95" type="passenger" route="south_north" depart="54.67"/>
    <vehicle id="veh96" type="passenger" route="lower_east" depart="54.74"/>
    <vehicle id="veh97" type="passenger" route="east_to_south" depart="54.77"/>
    <vehicle id="veh98" type="passenger" route="upper_west" depart="55.65"/>
    <vehicle id="veh99" type="passenger" route="north_south" depart="55.7"/>
    <vehicle id="veh100" type="passenger" route="middle_east" depart="56.28"/>
    <vehicle id="veh101" type="passenger" route="south_north" depart="57.32"/>
    <vehicle id="veh102" type="passenger" route="east_to_south" depart="57.52"/>
    <vehicle id="veh103" type="passenger" route="middle_west" depart="58.44"/>
    <vehicle id="veh104" type="passenger" route="lower_to_north" depart="58.96"/>
    <vehicle id="veh105" type="passenger" route="upper_west" depart="59.3"/>
    <vehicle id="veh106" type="passenger" route="south_north" depart="60.09"/>
    <vehicle id="veh107" type="passenger" route="north_south" depart="60.69"/>
    <vehicle id="veh108" type="passenger" route="north_middle_east" depart="60.88"/>
    <vehicle id="veh109" type="passenger" route="lower_to_north" depart="61.23"/>
    <vehicle id="veh110" type="passenger" route="south_north" depart="62.1"/>
    <vehicle id="veh111" type="passenger" route="middle_west" depart="62.97"/>
    <vehicle id="veh112" type="passenger" route="lower_to_north" depart="63.17"/>
    <vehicle id="veh113" type="passenger" route="lower_west" depart="63.27"/>
    <vehicle id="veh114" type="passenger" route="north_middle_east" depart="63.3"/>
    <vehicle id="veh115" type="passenger" route="south_north" depart="65.29"/>
    <vehicle id="veh116" type="passenger" route="lower_to_north" depart="65.51"/>
    <vehicle id="veh117" type="passenger" route="south_north" depart="66.06"/>
    <vehicle id="veh118" type="passenger" route="south_north" depart="66.57"/>
    <vehicle id="veh119" type="passenger" route="middle_east" depart="66.99"/>
    <vehicle id="veh120" type="passenger" route="lower_to_north" depart="67.29"/>
    <vehicle id="veh121" type="passenger" route="south_north" depart="67.32"/>
    <vehicle id="veh122" type="passenger" route="north_south" depart="67.41"/>
    <vehicle id="veh123" type="passenger" route="west_middle_south" depart="67.96"/>
    <vehicle id="veh124" type="passenger" route="south_north" depart="67.96"/>
    <vehicle id="veh125" type="passenger" route="north_south" depart="68.68"/>
    <vehicle id="veh126" type="passenger" route="middle_diagonal_east" depart="69.71"/>
    <vehicle id="veh127" type="passenger" route="lower_to_middle_east" depart="71.21"/>
    <vehicle id="veh128" type="passenger" route="lower_to_north" depart="71.23"/>
    <vehicle id="veh129" type="passenger" route="north_south" depart="72.27"/>
    <vehicle id="veh130" type="passenger" route="north_south" depart="72.31"/>
    <vehicle id="veh131" type="passenger" route="west_middle_south" depart="72.41"/>
    <vehicle id="veh132" type="passenger" route="north_south" depart="75.95"/>
    <vehicle id="veh133" type="passenger" route="west_middle_south" depart="77.92"/>
    <vehicle id="veh134" type="passenger" route="lower_west" depart="78.05"/>
    <vehicle id="veh135" type="passenger" route="north_south" depart="78.11"/>
    <vehicle id="veh136" type="passenger" route="north_south" depart="79.93"/>
    <vehicle id="veh137" type="passenger" route="north_south" depart="81.45"/>
    <vehicle id="veh138" type="emergency" route="north_south" depart="81.53"/>
    <vehicle id="veh139" type="passenger" route="south_north" depart="82.19"/>
    <vehicle id="veh140" type="passenger" route="north_south" depart="88.04"/>
    <vehicle id="veh141" type="passenger" route="upper_west" depart="91.89"/>
    <vehicle id="veh142" type="passenger" route="middle_east" depart="98.34"/>
    <vehicle id="veh143" type="passenger" route="east_to_upper_west" depart="103.3"/>
    <vehicle id="veh144" type="passenger" route="middle_east" depart="106.09"/>
    <vehicle id="veh145" type="passenger" route="east_to_upper_west" depart="108.37"/>
    <vehicle id="veh146" type="passenger" route="north_middle_east" depart="110.91"/>
    <vehicle id="veh147" type="emergency" route="middle_west" depart="111.53"/>
    <vehicle id="veh148" type="passenger" route="middle_east" depart="112.99"/>
    <vehicle id="veh149" type="passenger" route="south_north" depart="113.75"/>
    <vehicle id="veh150" type="passenger" route="middle_east" depart="115.39"/>
    <vehicle id="veh151" type="passenger" route="lower_west" depart="116.23"/>
    <vehicle id="veh152" type="passenger" route="middle_diagonal_east" depart="116.64"/>
    <vehicle id="veh153" type="passenger" route="middle_west" depart="116.94"/>
    <vehicle id="veh154" type="passenger" route="middle_east" depart="117.76"/>
    <vehicle id="veh155" type="passenger" route="middle_east" depart="118.09"/>
    <vehicle id="veh156" type="passenger" route="lower_to_middle_east" depart="118.58"/>
    <vehicle id="veh157" type="passenger" route="middle_west" depart="118.89"/>
    <vehicle id="veh158" type="passenger" route="west_middle_south" depart="119.14"/>
    <vehicle id="veh159" type="passenger" route="north_south" depart="119.47"/>
    <vehicle id="veh160" type="passenger" route="middle_west" depart="121.53"/>
    <vehicle id="veh161" type="passenger" route="middle_east" depart="122.38"/>
    <vehicle id="veh162" type="passenger" route="middle_west" depart="123.41"/>
    <vehicle id="veh163" type="passenger" route="middle_east" depart="124.17"/>
    <vehicle id="veh164" type="passenger" route="lower_to_middle_east" depart="124.5"/>
    <vehicle id="veh165" type="passenger" route="east_to_south" depart="124.93"/>
    <vehicle id="veh166" type="passenger" route="middle_east" depart="125.11"/>
    <vehicle id="veh167" type="passenger" route="middle_west" depart="125.41"/>
    <vehicle id="veh168" type="passenger" route="lower_west" depart="126.92"/>
    <vehicle id="veh169" type="passenger" route="east_to_south" depart="127.67"/>
    <vehicle id="veh170" type="passenger" route="east_to_upper_west" depart="128.88"/>
    <vehicle id="veh171" type="passenger" route="middle_diagonal_east" depart="130.51"/>
    <vehicle id="veh172" type="passenger" route="upper_to_south" depart="130.76"/>
    <vehicle id="veh173" type="passenger" route="lower_west" depart="131.16"/>
    <vehicle id="veh174" type="passenger" route="middle_east" depart="131.8"/>
    <vehicle id="veh175" type="passenger" route="east_to_south" depart="132.19"/>
    <vehicle id="veh176" type="passenger" route="middle_east" depart="132.21"/>
    <vehicle id="veh177" type="passenger" route="middle_west" depart="132.45"/>
    <vehicle id="veh178" type="passenger" route="lower_to_north" depart="132.54"/>
    <vehicle id="veh179" type="passenger" route="lower_west" depart="132.55"/>
    <vehicle id="veh180" type="passenger" route="middle_east" depart="133.51"/>
    <vehicle id="veh181" type="passenger" route="middle_west" depart="134.45"/>
    <vehicle id="veh182" type="passenger" route="middle_east" depart="134.58"/>
    <vehicle id="veh183" type="passenger" route="middle_west" depart="134.85"/>
    <vehicle id="veh184" type="passenger" route="north_south" depart="136.02"/>
    <vehicle id="veh185" type="passenger" route="east_to_upper_west" depart="136.32"/>
    <vehicle id="veh186" type="passenger" route="middle_east" depart="136.58"/>
    <vehicle id="veh187" type="passenger" route="lower_to_north" depart="137.85"/>
    <vehicle id="veh188" type="passenger" route="lower_to_north" depart="137.91"/>
    <vehicle id="veh189" type="passenger" route="west_middle_south" depart="138.51"/>
    <vehicle id="veh190" type="passenger" route="west_middle_south" depart="139.32"/>
    <vehicle id="veh191" type="passenger" route="lower_east" depart="139.54"/>
    <vehicle id="veh192" type="passenger" route="middle_west" depart="139.69"/>
    <vehicle id="veh193" type="passenger" route="middle_east" depart="140.27"/>
    <vehicle id="veh194" type="passenger" route="middle_west" depart="140.29"/>
    <vehicle id="veh195" type="passenger" route="middle_east" depart="140.59"/>
    <vehicle id="veh196" type="passenger" route="lower_to_middle_east" depart="140.71"/>
    <vehicle id="veh197" type="passenger" route="east_to_south" depart="141.07"/>
    <vehicle id="veh198" type="passenger" route="lower_to_middle_east" depart="141.47"/>
    <vehicle id="veh199" type="passenger" route="middle_east" depart="141.55"/>
    <vehicle id="veh200" type="passenger" route="middle_east" depart="141.78"/>
    <vehicle id="veh201" type="passenger" route="middle_east" depart="141.82"/>
    <vehicle id="veh202" type="passenger" route="middle_east" depart="142.03"/>
    <vehicle id="veh203" type="passenger" route="middle_west" depart="142.58"/>
    <vehicle id="veh204" type="passenger" route="north_middle_east" depart="143.51"/>
    <vehicle id="veh205" type="passenger" route="upper_to_south" depart="143.91"/>
    <vehicle id="veh206" type="passenger" route="lower_west" depart="144.01"/>
    <vehicle id="veh207" type="passenger" route="upper_west" depart="144.05"/>
    <vehicle id="veh208" type="passenger" route="north_south" depart="144.23"/>
    <vehicle id="veh209" type="passenger" route="west_middle_south" depart="144.27"/>
    <vehicle id="veh210" type="passenger" route="middle_east" depart="144.89"/>
    <vehicle id="veh211" type="passenger" route="upper_east" depart="145.02"/>
    <vehicle id="veh212" type="passenger" route="middle_west" depart="145.94"/>
    <vehicle id="veh213" type="passenger" route="east_to_south" depart="147.44"/>
    <vehicle id="veh214" type="passenger" route="middle_east" depart="147.5"/>
    <vehicle id="veh215" type="passenger" route="middle_east" depart="147.96"/>
    <vehicle id="veh216" type="passenger" route="middle_east" depart="148.39"/>
    <vehicle id="veh217" type="passenger" route="middle_east" depart="148.53"/>
    <vehicle id="veh218" type="passenger" route="middle_west" depart="148.65"/>
    <vehicle id="veh219" type="passenger" route="north_middle_east" depart="148.72"/>
    <vehicle id="veh220" type="passenger" route="west_middle_south" depart="149.23"/>
    <vehicle id="veh221" type="passenger" route="middle_east" depart="149.58"/>
    <vehicle id="veh222" type="passenger" route="middle_diagonal_east" depart="151.23"/>
    <vehicle id="veh223" type="passenger" route="middle_diagonal_east" depart="151.75"/>
    <vehicle id="veh224" type="passenger" route="north_south" depart="152.06"/>
    <vehicle id="veh225" type="passenger" route="west_middle_south" depart="152.62"/>
    <vehicle id="veh226" type="passenger" route="middle_diagonal_east" depart="152.68"/>
    <vehicle id="veh227" type="passenger" route="middle_west" depart="152.95"/>
    <vehicle id="veh228" type="passenger" route="east_to_upper_west" depart="153.4"/>
    <vehicle id="veh229" type="passenger" route="middle_west" depart="153.57"/>
    <vehicle id="veh230" type="passenger" route="middle_east" depart="153.96"/>
    <vehicle id="veh231" type="passenger" route="middle_west" depart="153.98"/>
    <vehicle id="veh232" type="passenger" route="upper_west" depart="154.85"/>
    <vehicle id="veh233" type="passenger" route="south_north" depart="155.32"/>
    <vehicle id="veh234" type="passenger" route="east_to_upper_west" depart="155.47"/>
    <vehicle id="veh235" type="passenger" route="middle_east" depart="155.54"/>
    <vehicle id="veh236" type="passenger" route="middle_east" depart="155.94"/>
    <vehicle id="veh237" type="passenger" route="middle_west" depart="156.35"/>
    <vehicle id="veh238" type="passenger" route="middle_east" depart="156.89"/>
    <vehicle id="veh239" type="passenger" route="middle_east" depart="157.32"/>
    <vehicle id="veh240" type="passenger" route="west_middle_south" depart="157.74"/>
    <vehicle id="veh241" type="passenger" route="middle_diagonal_east" depart="158.04"/>
    <vehicle id="veh242" type="passenger" route="lower_to_middle_east" depart="159.3"/>
    <vehicle id="veh243" type="passenger" route="middle_east" depart="159.8"/>
    <vehicle id="veh244" type="passenger" route="upper_to_south" depart="159.84"/>
    <vehicle id="veh245" type="passenger" route="middle_west" depart="160.78"/>
    <vehicle id="veh246" type="passenger" route="middle_west" depart="161.47"/>
    <vehicle id="veh247" type="passenger" route="upper_east" depart="161.76"/>
    <vehicle id="veh248" type="passenger" route="lower_to_north" depart="162.79"/>
    <vehicle id="veh249" type="passenger" route="lower_west" depart="163.41"/>
    <vehicle id="veh250" type="passenger" route="middle_west" depart="163.74"/>
    <vehicle id="veh251" type="passenger" route="east_to_upper_west" depart="164.66"/>
    <vehicle id="veh252" type="passenger" route="north_middle_east" depart="165.19"/>
    <vehicle id="veh253" type="passenger" route="east_to_south" depart="165.57"/>
    <vehicle id="veh254" type="passenger" route="middle_diagonal_east" depart="165.82"/>
    <vehicle id="veh255" type="passenger" route="north_middle_east" depart="166.38"/>
    <vehicle id="veh256" type="passenger" route="west_middle_south" depart="167.38"/>
    <vehicle id="veh257" type="passenger" route="upper_to_south" depart="168.3"/>
    <vehicle id="veh258" type="passenger" route="middle_west" depart="169.36"/>
    <vehicle id="veh259" type="passenger" route="lower_to_middle_east" depart="169.4"/>
    <vehicle id="veh260" type="passenger" route="east_to_south" depart="169.59"/>
    <vehicle id="veh261" type="passenger" route="lower_to_north" depart="169.6"/>
    <vehicle id="veh262" type="passenger" route="south_north" depart="170.35"/>
    <vehicle id="veh263" type="emergency" route="upper_east" depart="171.84"/>
    <vehicle id="veh264" type="passenger" route="lower_to_north" depart="174.24"/>
    <vehicle id="veh265" type="passenger" route="middle_west" depart="176.59"/>
    <vehicle id="veh266" type="passenger" route="lower_west" depart="176.83"/>
    <vehicle id="veh267" type="passenger" route="east_to_south" depart="177.85"/>
    <vehicle id="veh268" type="passenger" route="middle_west" depart="178.9"/>
    <vehicle id="veh269" type="passenger" route="east_to_south" depart="178.96"/>
    <vehicle id="veh270" type="passenger" route="north_south" depart="182.7"/>
    <vehicle id="veh271" type="passenger" route="east_to_upper_west" depart="183.42"/>
    <vehicle id="veh272" type="passenger" route="middle_east" depart="184.16"/>
    <vehicle id="veh273" type="passenger" route="middle_west" depart="185.27"/>
    <vehicle id="veh274" type="passenger" route="middle_east" depart="190.77"/>
    <vehicle id="veh275" type="passenger" route="lower_to_middle_east" depart="203.07"/>
    <vehicle id="veh276" type="passenger" route="north_middle_east" depart="204.67"/>
    <vehicle id="veh277" type="passenger" route="middle_west" depart="204.7"/>
    <vehicle id="veh278" type="passenger" route="west_middle_south" depart="206.35"/>
    <vehicle id="veh279" type="emergency" route="upper_east" depart="207.21"/>
    <vehicle id="veh280" type="passenger" route="east_to_upper_west" depart="210.65"/>
    <vehicle id="veh281" type="passenger" route="north_middle_east" depart="213.08"/>
    <vehicle id="veh282" type="passenger" route="lower_to_north" depart="214.31"/>
    <vehicle id="veh283" type="passenger" route="lower_east" depart="214.53"/>
    <vehicle id="veh284" type="passenger" route="east_to_south" depart="217.0"/>
    <vehicle id="veh285" type="passenger" route="east_to_upper_west" depart="217.09"/>
    <vehicle id="veh286" type="passenger" route="middle_diagonal_east" depart="218.44"/>
    <vehicle id="veh287" type="passenger" route="west_middle_south" depart="219.09"/>
    <vehicle id="veh288" type="passenger" route="middle_east" depart="220.8"/>
    <vehicle id="veh289" type="passenger" route="east_to_upper_west" depart="221.03"/>
    <vehicle id="veh290" type="passenger" route="lower_to_north" depart="221.79"/>
    <vehicle id="veh291" type="passenger" route="lower_to_north" depart="222.57"/>
    <vehicle id="veh292" type="passenger" route="east_to_upper_west" depart="222.6"/>
    <vehicle id="veh293" type="passenger" route="upper_east" depart="224.8"/>
    <vehicle id="veh294" type="emergency" route="north_south" depart="224.95"/>
    <vehicle id="veh295" type="passenger" route="upper_to_south" depart="225.96"/>
    <vehicle id="veh296" type="passenger" route="middle_diagonal_east" depart="226.76"/>
    <vehicle id="veh297" type="passenger" route="lower_to_middle_east" depart="228.05"/>
    <vehicle id="veh298" type="passenger" route="middle_east" depart="228.14"/>
    <vehicle id="veh299" type="passenger" route="lower_to_middle_east" depart="228.63"/>
    <vehicle id="veh300" type="passenger" route="east_to_upper_west" depart="229.1"/>
    <vehicle id="veh301" type="passenger" route="lower_east" depart="229.12"/>
    <vehicle id="veh302" type="passenger" route="upper_to_south" depart="229.3"/>
    <vehicle id="veh303" type="passenger" route="middle_diagonal_east" depart="229.56"/>
    <vehicle id="veh304" type="passenger" route="west_middle_south" depart="229.64"/>
    <vehicle id="veh305" type="passenger" route="west_middle_south" depart="229.76"/>
    <vehicle id="veh306" type="passenger" route="lower_to_north" depart="230.6"/>
    <vehicle id="veh307" type="passenger" route="lower_to_north" depart="230.64"/>
    <vehicle id="veh308" type="passenger" route="east_to_upper_west" depart="231.75"/>
    <vehicle id="veh309" type="passenger" route="east_to_upper_west" depart="232.26"/>
    <vehicle id="veh310" type="passenger" route="upper_to_south" depart="233.05"/>
    <vehicle id="veh311" type="passenger" route="lower_to_middle_east" depart="233.75"/>
    <vehicle id="veh312" type="passenger" route="east_to_upper_west" depart="233.91"/>
    <vehicle id="veh313" type="passenger" route="lower_west" depart="234.11"/>
    <vehicle id="veh314" type="passenger" route="north_middle_east" depart="234.15"/>
    <vehicle id="veh315" type="passenger" route="east_to_south" depart="234.25"/>
    <vehicle id="veh316" type="passenger" route="lower_west" depart="234.35"/>
    <vehicle id="veh317" type="passenger" route="north_middle_east" depart="234.45"/>
    <vehicle id="veh318" type="passenger" route="lower_east" depart="234.77"/>
    <vehicle id="veh319" type="passenger" route="lower_to_north" depart="235.12"/>
    <vehicle id="veh320" type="passenger" route="middle_west" depart="235.58"/>
    <vehicle id="veh321" type="passenger" route="lower_to_north" depart="235.67"/>
    <vehicle id="veh322" type="passenger" route="north_middle_east" depart="236.83"/>
    <vehicle id="veh323" type="passenger" route="middle_diagonal_east" depart="236.86"/>
    <vehicle id="veh324" type="passenger" route="east_to_upper_west" depart="236.95"/>
    <vehicle id="veh325" type="passenger" route="lower_to_north" depart="237.13"/>
    <vehicle id="veh326" type="passenger" route="lower_to_middle_east" depart="237.52"/>
    <vehicle id="veh327" type="passenger" route="lower_east" depart="237.61"/>
    <vehicle id="veh328" type="passenger" route="middle_east" depart="237.78"/>
    <vehicle id="veh329" type="passenger" route="middle_diagonal_east" depart="238.68"/>
    <vehicle id="veh330" type="passenger" route="lower_to_north" depart="238.74"/>
    <vehicle id="veh331" type="passenger" route="upper_to_south" depart="238.83"/>
    <vehicle id="veh332" type="passenger" route="north_middle_east" depart="239.1"/>
    <vehicle id="veh333" type="passenger" route="middle_diagonal_east" depart="239.65"/>
    <vehicle id="veh334" type="passenger" route="middle_west" depart="240.73"/>
    <vehicle id="veh335" type="passenger" route="west_middle_south" depart="241.62"/>
    <vehicle id="veh336" type="passenger" route="east_to_south" depart="242.82"/>
    <vehicle id="veh337" type="passenger" route="lower_to_middle_east" depart="243.21"/>
    <vehicle id="veh338" type="passenger" route="middle_east" depart="243.25"/>
    <vehicle id="veh339" type="passenger" route="north_middle_east" depart="243.3"/>
    <vehicle id="veh340" type="passenger" route="east_to_upper_west" depart="244.09"/>
    <vehicle id="veh341" type="passenger" route="middle_diagonal_east" depart="244.18"/>
    <vehicle id="veh342" type="passenger" route="upper_west" depart="245.67"/>
    <vehicle id="veh343" type="passenger" route="west_middle_south" depart="246.38"/>
    <vehicle id="veh344" type="passenger" route="north_south" depart="247.32"/>
    <vehicle id="veh345" type="passenger" route="upper_west" depart="248.04"/>
    <vehicle id="veh346" type="passenger" route="upper_to_south" depart="248.56"/>
    <vehicle id="veh347" type="passenger" route="east_to_south" depart="248.96"/>
    <vehicle id="veh348" type="passenger" route="north_middle_east" depart="249.35"/>
    <vehicle id="veh349" type="passenger" route="middle_diagonal_east" depart="249.43"/>