<?xml version="1.0" encoding="UTF-8"?>

<!-- generated on 2026-04-12T12:09:52.368416+05:30 by Eclipse SUMO netconvert 1.26.0
<netconvertConfiguration xmlns:xsi="http://www.w3.org/2001/XMLSchema-instance" xsi:noNamespaceSchemaLocation="http://sumo.dlr.de/xsd/netconvertConfiguration.xsd">

    <input>
        <node-files value="C:\Users\santhosh\OneDrive\Desktop\trafiic pro\web_runs\20260412_120951_884354\area.nod.xml"/>
        <edge-files value="C:\Users\santhosh\OneDrive\Desktop\trafiic pro\web_runs\20260412_120951_884354\area.edg.xml"/>
    </input>

    <output>
        <output-file value="C:\Users\santhosh\OneDrive\Desktop\trafiic pro\web_runs\20260412_120951_884354\area.net.xml"/>
    </output>

    <building_defaults>
        <default.lanewidth value="1.5"/>
    </building_defaults>

    <junctions>
        <junctions.corner-detail value="0"/>
    </junctions>

</netconvertConfiguration>
-->

<net version="1.20" limitTurnSpeed="5.50" xmlns:xsi="http://www.w3.org/2001/XMLSchema-instance" xsi:noNamespaceSchemaLocation="http://sumo.dlr.de/xsd/net_file.xsd">

    <location netOffset="-70.00,-70.00" convBoundary="0.00,0.00,820.00,500.00" origBoundary="70.00,70.00,890.00,570.00" projParameter="!"/>

    <edge id=":P0_0" function="internal">
        <lane id=":P0_0_0" index="0" speed="5.12" length="10.62" width="1.50" shape="6.49,499.77 2.80,500.06 1.30,499.48 1.99,498.03 4.86,495.70"/>
    </edge>
    <edge id=":P0_1" function="internal">
        <lane id=":P0_1_0" index="0" speed="3.18" length="3.54" width="1.50" shape="5.72,496.93 4.76,497.70 4.53,498.19 5.03,498.38 6.26,498.28"/>
    </edge>
    <edge id=":P1_0" function="internal">
        <lane id=":P1_0_0" index="0" speed="4.16" length="3.72" width="1.50" shape="708.53,464.62 708.39,465.64 707.96,466.35 707.24,466.77 706.22,466.89"/>
    </edge>
    <edge id=":P1_1" function="internal">
        <lane id=":P1_1_0" index="0" speed="2.67" length="1.24" width="1.50" shape="706.26,465.39 706.60,465.35 706.84,465.21 706.98,464.97 707.03,464.64"/>
    </edge>
    <edge id=":P2_0" function="internal">
        <lane id=":P2_0_0" index="0" speed="6.93" length="15.65" width="1.50" shape="127.31,141.72 124.19,139.23 123.59,136.53 125.51,133.64 129.96,130.54"/>
    </edge>
    <edge id=":P2_1" function="internal">
        <lane id=":P2_1_0" index="0" speed="6.16" length="14.71" width="1.50" shape="127.31,141.72 123.98,139.32 123.58,137.34 126.14,135.80 131.63,134.70"/>
    </edge>
    <edge id=":P2_2" function="internal">
        <lane id=":P2_2_0" index="0" speed="2.50" length="1.10" width="1.50" shape="127.31,141.72 127.00,141.12 127.01,140.70"/>
    </edge>
    <edge id=":P2_9" function="internal">
        <lane id=":P2_9_0" index="0" speed="2.50" length="1.10" width="1.50" shape="127.01,140.70 127.36,140.46 128.03,140.40"/>
    </edge>
    <edge id=":P2_3" function="internal">
        <lane id=":P2_3_0" index="0" speed="5.00" length="9.39" width="1.50" shape="131.82,136.18 128.08,136.90 126.20,137.84 126.19,139.00 128.03,140.40"/>
    </edge>
    <edge id=":P2_4" function="internal">
        <lane id=":P2_4_0" index="0" speed="6.23" length="16.71" width="1.50" shape="131.82,136.18 125.90,136.57 123.62,135.76 124.97,133.75 129.96,130.54"/>
    </edge>
    <edge id=":P2_5" function="internal">
        <lane id=":P2_5_0" index="0" speed="2.50" length="1.97" width="1.50" shape="131.82,136.18 131.22,135.88 130.98,135.53 131.12,135.14 131.47,134.84"/>
    </edge>
    <edge id=":P2_10" function="internal">
        <lane id=":P2_10_0" index="0" speed="2.50" length="0.22" width="1.50" shape="131.47,134.84 131.63,134.70"/>
    </edge>
    <edge id=":P2_6" function="internal">
        <lane id=":P2_6_0" index="0" speed="4.54" length="8.43" width="1.50" shape="130.69,131.85 128.18,133.47 127.49,134.48 128.65,134.89 131.63,134.70"/>
    </edge>
    <edge id=":P2_7" function="internal">
        <lane id=":P2_7_0" index="0" speed="6.12" length="12.03" width="1.50" shape="130.69,131.85 127.13,134.29 125.50,136.52 125.80,138.56 128.03,140.40"/>
    </edge>
    <edge id=":P2_8" function="internal">
        <lane id=":P2_8_0" index="0" speed="2.50" length="1.70" width="1.50" shape="130.69,131.85 130.02,131.80 129.67,131.56 129.65,131.14 129.73,130.98"/>
    </edge>
    <edge id=":P2_11" function="internal">
        <lane id=":P2_11_0" index="0" speed="2.50" length="0.49" width="1.50" shape="129.73,130.98 129.96,130.54"/>
    </edge>
    <edge id=":P3_0" function="internal">
        <lane id=":P3_0_0" index="0" speed="4.58" length="7.54" width="1.50" shape="815.81,113.42 818.26,113.76 819.29,114.55 818.90,115.79 817.08,117.47"/>
    </edge>
    <edge id=":P3_1" function="internal">
        <lane id=":P3_1_0" index="0" speed="2.89" length="2.51" width="1.50" shape="816.18,116.27 816.78,115.71 816.91,115.30 816.57,115.03 815.76,114.92"/>
    </edge>
    <edge id=":P8_0" function="internal">
        <lane id=":P8_0_0" index="0" speed="2.50" length="2.19" width="1.50" shape="262.58,-0.03 262.98,-0.58 263.36,-0.75 263.73,-0.55 264.08,0.03"/>
    </edge>

    <edge id="E1_P0_P1" from="P0" to="P1" priority="-1" shape="0.00,500.00 286.48,456.19 707.79,466.18">
        <lane id="E1_P0_P1_0" index="0" speed="13.90" length="703.37" width="1.50" shape="6.26,498.28 286.43,455.44 706.26,465.39"/>
    </edge>
    <edge id="E1_P1_P0" from="P1" to="P0" priority="-1" shape="707.79,466.18 286.48,456.19 0.00,500.00">
        <lane id="E1_P1_P0_0" index="0" speed="13.90" length="703.11" width="1.50" shape="706.22,466.89 286.53,456.94 6.49,499.77"/>
    </edge>
    <edge id="E4_P2_P3" from="P2" to="P3" priority="-1" shape="120.09,136.93 416.85,98.92 820.00,114.33">
        <lane id="E4_P2_P3_0" index="0" speed="13.90" length="686.80" width="1.50" shape="131.63,134.70 416.82,98.17 815.81,113.42"/>
    </edge>
    <edge id="E4_P3_P2" from="P3" to="P2" priority="-1" shape="820.00,114.33 416.85,98.92 120.09,136.93">
        <lane id="E4_P3_P2_0" index="0" speed="13.90" length="686.55" width="1.50" shape="815.76,114.92 416.88,99.67 131.82,136.18"/>
    </edge>
    <edge id="E6_P0_P2" from="P0" to="P2" priority="-1" shape="0.00,500.00 133.59,406.89 156.63,290.63 188.81,174.38 120.09,136.93">
        <lane id="E6_P0_P2_0" index="0" speed="13.90" length="463.42" width="1.50" shape="4.86,495.70 132.91,406.45 155.90,290.46 187.93,174.75 127.31,141.72"/>
    </edge>
    <edge id="E6_P2_P0" from="P2" to="P0" priority="-1" shape="120.09,136.93 188.81,174.38 156.63,290.63 133.59,406.89 0.00,500.00">
        <lane id="E6_P2_P0_0" index="0" speed="13.90" length="466.90" width="1.50" shape="128.03,140.40 189.69,174.01 157.36,290.80 134.27,407.33 5.72,496.93"/>
    </edge>
    <edge id="E7_P2_P8" from="P2" to="P8" priority="-1" shape="120.09,136.93 260.74,58.13 263.33,0.00">
        <lane id="E7_P2_P8_0" index="0" speed="13.90" length="206.84" width="1.50" shape="129.96,130.54 260.01,57.68 262.58,-0.03"/>
    </edge>
    <edge id="E7_P8_P2" from="P8" to="P2" priority="-1" shape="263.33,0.00 260.74,58.13 120.09,136.93">
        <lane id="E7_P8_P2_0" index="0" speed="13.90" length="208.51" width="1.50" shape="264.08,0.03 261.47,58.58 130.69,131.85"/>
    </edge>
    <edge id="E8_P1_P3" from="P1" to="P3" priority="-1" shape="707.79,466.18 706.13,290.63 740.18,174.38 820.00,114.33">
        <lane id="E8_P1_P3_0" index="0" speed="13.90" length="391.53" width="1.50" shape="707.03,464.64 705.38,290.53 739.53,173.93 816.18,116.27"/>
    </edge>
    <edge id="E8_P3_P1" from="P3" to="P1" priority="-1" shape="820.00,114.33 740.18,174.38 706.13,290.63 707.79,466.18">
        <lane id="E8_P3_P1_0" index="0" speed="13.90" length="390.09" width="1.50" shape="817.08,117.47 740.83,174.83 706.88,290.73 708.53,464.62"/>
    </edge>

    <tlLogic id="P2" type="static" programID="0" offset="0">
        <phase duration="27" state="GrrrrrGGg"/>
        <phase duration="3"  state="Grrrrryyy"/>
        <phase duration="27" state="GGgGrrrrr"/>
        <phase duration="3"  state="yyyGrrrrr"/>
        <phase duration="27" state="rrrGGgGrr"/>
        <phase duration="3"  state="rrryyyGrr"/>
    </tlLogic>

    <junction id="P0" type="priority" x="0.00" y="500.00" incLanes="E1_P1_P0_0 E6_P2_P0_0" intLanes=":P0_0_0 :P0_1_0" shape="6.60,500.51 6.15,497.54 4.43,495.08">
        <request index="0" response="00" foes="00" cont="0"/>
        <request index="1" response="00" foes="00" cont="0"/>
    </junction>
    <junction id="P1" type="priority" x="707.79" y="466.18" incLanes="E8_P3_P1_0 E1_P0_P1_0" intLanes=":P1_0_0 :P1_1_0" shape="709.28,464.62 706.28,464.64 706.20,467.64">
        <request index="0" response="00" foes="00" cont="0"/>
        <request index="1" response="00" foes="00" cont="0"/>
    </junction>
    <junction id="P2" type="traffic_light" x="120.09" y="136.93" incLanes="E6_P0_P2_0 E4_P3_P2_0 E7_P8_P2_0" intLanes=":P2_0_0 :P2_1_0 :P2_9_0 :P2_3_0 :P2_4_0 :P2_10_0 :P2_6_0 :P2_7_0 :P2_11_0" shape="126.95,142.38 128.39,139.74 131.92,136.93 131.54,133.95 131.06,132.50 129.59,129.89">
        <request index="0" response="000000000" foes="100010000" cont="0"/>
        <request index="1" response="011000000" foes="011110000" cont="0"/>
        <request index="2" response="010001000" foes="010001000" cont="1"/>
        <request index="3" response="010000000" foes="010000100" cont="0"/>
        <request index="4" response="010000011" foes="110000011" cont="0"/>
        <request index="5" response="001000010" foes="001000010" cont="1"/>
        <request index="6" response="000000000" foes="000100010" cont="0"/>
        <request index="7" response="000000000" foes="000011110" cont="0"/>
        <request index="8" response="000010001" foes="000010001" cont="1"/>
    </junction>
    <junction id="P3" type="priority" x="820.00" y="114.33" incLanes="E4_P2_P3_0 E8_P1_P3_0" intLanes=":P3_0_0 :P3_1_0" shape="815.84,112.67 815.73,115.67 817.53,118.07">
        <request index="0" response="00" foes="00" cont="0"/>
        <request index="1" response="00" foes="00" cont="0"/>
    </junction>
    <junction id="P8" type="priority" x="263.33" y="0.00" incLanes="E7_P2_P8_0" intLanes=":P8_0_0" shape="263.33,0.00 261.83,-0.07 263.33,0.00">
        <request index="0" response="0" foes="0" cont="0"/>
    </junction>

    <junction id=":P2_9_0" type="internal" x="127.01" y="140.70" incLanes=":P2_2_0 E4_P3_P2_0 E7_P8_P2_0" intLanes=":P2_3_0 :P2_7_0"/>
    <junction id=":P2_10_0" type="internal" x="131.47" y="134.84" incLanes=":P2_5_0 E6_P0_P2_0 E7_P8_P2_0" intLanes=":P2_1_0 :P2_6_0"/>
    <junction id=":P2_11_0" type="internal" x="129.73" y="130.98" incLanes=":P2_8_0 E4_P3_P2_0 E6_P0_P2_0" intLanes=":P2_0_0 :P2_4_0"/>

    <connection from="E1_P0_P1" to="E8_P1_P3" fromLane="0" toLane="0" via=":P1_1_0" dir="r" state="M"/>
    <connection from="E1_P1_P0" to="E6_P0_P2" fromLane="0" toLane="0" via=":P0_0_0" dir="l" state="M"/>
    <connection from="E4_P2_P3" to="E8_P3_P1" fromLane="0" toLane="0" via=":P3_0_0" dir="l" state="M"/>
    <connection from="E4_P3_P2" to="E6_P2_P0" fromLane="0" toLane="0" via=":P2_3_0" tl="P2" linkIndex="3" dir="r" state="o"/>
    <connection from="E4_P3_P2" to="E7_P2_P8" fromLane="0" toLane="0" via=":P2_4_0" tl="P2" linkIndex="4" dir="l" state="o"/>
    <connection from="E4_P3_P2" to="E4_P2_P3" fromLane="0" toLane="0" via=":P2_5_0" tl="P2" linkIndex="5" dir="t" state="o"/>
    <connection from="E6_P0_P2" to="E7_P2_P8" fromLane="0" toLane="0" via=":P2_0_0" tl="P2" linkIndex="0" dir="l" state="O"/>
    <connection from="E6_P0_P2" to="E4_P2_P3" fromLane="0" toLane="0" via=":P2_1_0" tl="P2" linkIndex="1" dir="l" state="o"/>
    <connection from="E6_P0_P2" to="E6_P2_P0" fromLane="0" toLane="0" via=":P2_2_0" tl="P2" linkIndex="2" dir="t" state="o"/>
    <connection from="E6_P2_P0" to="E1_P0_P1" fromLane="0" toLane="0" via=":P0_1_0" dir="r" state="M"/>
    <connection from="E7_P2_P8" to="E7_P8_P2" fromLane="0" toLane="0" via=":P8_0_0" dir="t" state="M"/>
    <connection from="E7_P8_P2" to="E4_P2_P3" fromLane="0" toLane="0" via=":P2_6_0" tl="P2" linkIndex="6" dir="r" state="O"/>
    <connection from="E7_P8_P2" to="E6_P2_P0" fromLane="0" toLane="0" via=":P2_7_0" tl="P2" linkIndex="7" dir="r" state="O"/>
    <connection from="E7_P8_P2" to="E7_P2_P8" fromLane="0" toLane="0" via=":P2_8_0" tl="P2" linkIndex="8" dir="t" state="o"/>
    <connection from="E8_P1_P3" to="E4_P3_P2" fromLane="0" toLane="0" via=":P3_1_0" dir="r" state="M"/>
    <connection from="E8_P3_P1" to="E1_P1_P0" fromLane="0" toLane="0" via=":P1_0_0" dir="l" state="M"/>

    <connection from=":P0_0" to="E6_P0_P2" fromLane="0" toLane="0" dir="l" state="M"/>
    <connection from=":P0_1" to="E1_P0_P1" fromLane="0" toLane="0" dir="r" state="M"/>
    <connection from=":P1_0" to="E1_P1_P0" fromLane="0" toLane="0" dir="l" state="M"/>
    <connection from=":P1_1" to="E8_P1_P3" fromLane="0" toLane="0" dir="r" state="M"/>
    <connection from=":P2_0" to="E7_P2_P8" fromLane="0" toLane="0" dir="l" state="M"/>
    <connection from=":P2_1" to="E4_P2_P3" fromLane="0" toLane="0" dir="l" state="M"/>
    <connection from=":P2_2" to="E6_P2_P0" fromLane="0" toLane="0" via=":P2_9_0" dir="t" state="m"/>
    <connection from=":P2_9" to="E6_P2_P0" fromLane="0" toLane="0" dir="t" state="M"/>
    <connection from=":P2_3" to="E6_P2_P0" fromLane="0" toLane="0" dir="r" state="M"/>
    <connection from=":P2_4" to="E7_P2_P8" fromLane="0" toLane="0" dir="l" state="M"/>
    <connection from=":P2_5" to="E4_P2_P3" fromLane="0" toLane="0" via=":P2_10_0" dir="t" state="m"/>
    <connection from=":P2_10" to="E4_P2_P3" fromLane="0" toLane="0" dir="t" state="M"/>
    <connection from=":P2_6" to="E4_P2_P3" fromLane="0" toLane="0" dir="r" state="M"/>
    <connection from=":P2_7" to="E6_P2_P0" fromLane="0" toLane="0" dir="r" state="M"/>
    <connection from=":P2_8" to="E7_P2_P8" fromLane="0" toLane="0" via=":P2_11_0" dir="t" state="m"/>
    <connection from=":P2_11" to="E7_P2_P8" fromLane="0" toLane="0" dir="t" state="M"/>
    <connection from=":P3_0" to="E8_P3_P1" fromLane="0" toLane="0" dir="l" state="M"/>
    <connection from=":P3_1" to="E4_P3_P2" fromLane="0" toLane="0" dir="r" state="M"/>
    <connection from=":P8_0" to="E7_P8_P2" fromLane="0" toLane="0" dir="t" state="M"/>

</net>
