<nodes>
    <node id="J0" x="250.0" y="230.0" type="traffic_light"/>
    <node id="J1" x="450.0" y="230.0" type="traffic_light"/>
    <node id="J2" x="250.0" y="50.0" type="priority"/>
    <node id="J3" x="250.0" y="410.0" type="priority"/>
    <node id="J4" x="50.0" y="230.0" type="priority"/>
    <node id="J5" x="650.0" y="175.0" type="priority"/>
    <node id="J6" x="650.0" y="230.0" type="priority"/>
</nodes>