<?xml version="1.0" encoding="UTF-8"?>

<!-- generated on 2026-04-12T19:32:13.480698+05:30 by Eclipse SUMO netconvert 1.26.0
<netconvertConfiguration xmlns:xsi="http://www.w3.org/2001/XMLSchema-instance" xsi:noNamespaceSchemaLocation="http://sumo.dlr.de/xsd/netconvertConfiguration.xsd">

    <input>
        <node-files value="C:\Users\santhosh\OneDrive\Desktop\trafiic pro\web_runs\20260412_193153_525354\area.nod.xml"/>
        <edge-files value="C:\Users\santhosh\OneDrive\Desktop\trafiic pro\web_runs\20260412_193153_525354\area.edg.xml"/>
    </input>

    <output>
        <output-file value="C:\Users\santhosh\OneDrive\Desktop\trafiic pro\web_runs\20260412_193153_525354\area.net.xml"/>
    </output>

    <building_defaults>
        <default.lanewidth value="1.5"/>
    </building_defaults>

    <junctions>
        <junctions.corner-detail value="0"/>
    </junctions>

</netconvertConfiguration>
-->

<net version="1.20" limitTurnSpeed="5.50" xmlns:xsi="http://www.w3.org/2001/XMLSchema-instance" xsi:noNamespaceSchemaLocation="http://sumo.dlr.de/xsd/net_file.xsd">

    <location netOffset="-50.00,-50.00" convBoundary="0.00,0.00,600.00,360.00" origBoundary="50.00,50.00,650.00,410.00" projParameter="!"/>

    <edge id=":J0_0" function="internal">
        <lane id=":J0_0_0" index="0" speed="5.85" length="7.66" width="1.50" shape="199.25,185.50 198.95,183.42 198.06,181.94 196.58,181.05 194.50,180.75"/>
    </edge>
    <edge id=":J0_1" function="internal">
        <lane id=":J0_1_0" index="0" speed="13.90" length="11.00" width="1.50" shape="199.25,185.50 199.25,174.50"/>
    </edge>
    <edge id=":J0_2" function="internal">
        <lane id=":J0_2_0" index="0" speed="6.66" length="4.71" width="1.50" shape="199.25,185.50 199.64,182.77 200.64,181.09"/>
    </edge>
    <edge id=":J0_3" function="internal">
        <lane id=":J0_3_0" index="0" speed="2.50" length="1.87" width="1.50" shape="199.25,185.50 199.62,184.94 200.00,184.75 200.38,184.94 200.57,185.23"/>
    </edge>
    <edge id=":J0_16" function="internal">
        <lane id=":J0_16_0" index="0" speed="6.66" length="5.37" width="1.50" shape="200.64,181.09 200.81,180.81 202.77,179.64 205.50,179.25"/>
    </edge>
    <edge id=":J0_17" function="internal">
        <lane id=":J0_17_0" index="0" speed="2.50" length="0.32" width="1.50" shape="200.57,185.23 200.75,185.50"/>
    </edge>
    <edge id=":J0_4" function="internal">
        <lane id=":J0_4_0" index="0" speed="5.85" length="7.66" width="1.50" shape="205.50,180.75 203.42,181.05 201.94,181.94 201.05,183.42 200.75,185.50"/>
    </edge>
    <edge id=":J0_5" function="internal">
        <lane id=":J0_5_0" index="0" speed="13.90" length="11.00" width="1.50" shape="205.50,180.75 194.50,180.75"/>
    </edge>
    <edge id=":J0_6" function="internal">
        <lane id=":J0_6_0" index="0" speed="6.66" length="4.71" width="1.50" shape="205.50,180.75 202.77,180.36 201.09,179.36"/>
    </edge>
    <edge id=":J0_7" function="internal">
        <lane id=":J0_7_0" index="0" speed="2.50" length="1.87" width="1.50" shape="205.50,180.75 204.94,180.38 204.75,180.00 204.94,179.62 205.23,179.43"/>
    </edge>
    <edge id=":J0_18" function="internal">
        <lane id=":J0_18_0" index="0" speed="6.66" length="5.37" width="1.50" shape="201.09,179.36 200.81,179.19 199.64,177.23 199.25,174.50"/>
    </edge>
    <edge id=":J0_19" function="internal">
        <lane id=":J0_19_0" index="0" speed="2.50" length="0.32" width="1.50" shape="205.23,179.43 205.50,179.25"/>
    </edge>
    <edge id=":J0_8" function="internal">
        <lane id=":J0_8_0" index="0" speed="5.85" length="7.66" width="1.50" shape="200.75,174.50 201.05,176.58 201.94,178.06 203.42,178.95 205.50,179.25"/>
    </edge>
    <edge id=":J0_9" function="internal">
        <lane id=":J0_9_0" index="0" speed="13.90" length="11.00" width="1.50" shape="200.75,174.50 200.75,185.50"/>
    </edge>
    <edge id=":J0_10" function="internal">
        <lane id=":J0_10_0" index="0" speed="6.66" length="4.71" width="1.50" shape="200.75,174.50 200.36,177.23 199.36,178.91"/>
    </edge>
    <edge id=":J0_11" function="internal">
        <lane id=":J0_11_0" index="0" speed="2.50" length="1.87" width="1.50" shape="200.75,174.50 200.38,175.06 200.00,175.25 199.62,175.06 199.43,174.77"/>
    </edge>
    <edge id=":J0_20" function="internal">
        <lane id=":J0_20_0" index="0" speed="6.66" length="5.37" width="1.50" shape="199.36,178.91 199.19,179.19 197.23,180.36 194.50,180.75"/>
    </edge>
    <edge id=":J0_21" function="internal">
        <lane id=":J0_21_0" index="0" speed="2.50" length="0.32" width="1.50" shape="199.43,174.77 199.25,174.50"/>
    </edge>
    <edge id=":J0_12" function="internal">
        <lane id=":J0_12_0" index="0" speed="5.85" length="7.66" width="1.50" shape="194.50,179.25 196.58,178.95 198.06,178.06 198.95,176.58 199.25,174.50"/>
    </edge>
    <edge id=":J0_13" function="internal">
        <lane id=":J0_13_0" index="0" speed="13.90" length="11.00" width="1.50" shape="194.50,179.25 205.50,179.25"/>
    </edge>
    <edge id=":J0_14" function="internal">
        <lane id=":J0_14_0" index="0" speed="6.66" length="4.71" width="1.50" shape="194.50,179.25 197.23,179.64 198.91,180.64"/>
    </edge>
    <edge id=":J0_15" function="internal">
        <lane id=":J0_15_0" index="0" speed="2.50" length="1.87" width="1.50" shape="194.50,179.25 195.06,179.62 195.25,180.00 195.06,180.38 194.77,180.57"/>
    </edge>
    <edge id=":J0_22" function="internal">
        <lane id=":J0_22_0" index="0" speed="6.66" length="5.37" width="1.50" shape="198.91,180.64 199.19,180.81 200.36,182.77 200.75,185.50"/>
    </edge>
    <edge id=":J0_23" function="internal">
        <lane id=":J0_23_0" index="0" speed="2.50" length="0.32" width="1.50" shape="194.77,180.57 194.50,180.75"/>
    </edge>
    <edge id=":J1_0" function="internal">
        <lane id=":J1_0_0" index="0" speed="13.90" length="8.00" width="1.50" shape="404.00,180.75 396.00,180.75"/>
    </edge>
    <edge id=":J1_1" function="internal">
        <lane id=":J1_1_0" index="0" speed="2.22" length="0.75" width="1.50" shape="404.00,180.75 404.00,180.00"/>
    </edge>
    <edge id=":J1_2" function="internal">
        <lane id=":J1_2_0" index="0" speed="2.50" length="1.87" width="1.50" shape="404.00,180.75 403.44,180.38 403.25,180.00 403.44,179.62 403.73,179.43"/>
    </edge>
    <edge id=":J1_9" function="internal">
        <lane id=":J1_9_0" index="0" speed="2.22" length="0.75" width="1.50" shape="404.00,180.00 404.00,179.25"/>
    </edge>
    <edge id=":J1_10" function="internal">
        <lane id=":J1_10_0" index="0" speed="2.50" length="0.32" width="1.50" shape="403.73,179.43 404.00,179.25"/>
    </edge>
    <edge id=":J1_3" function="internal">
        <lane id=":J1_3_0" index="0" speed="13.90" length="8.00" width="1.50" shape="404.00,180.75 396.00,180.75"/>
    </edge>
    <edge id=":J1_4" function="internal">
        <lane id=":J1_4_0" index="0" speed="2.22" length="1.50" width="1.50" shape="404.00,180.75 404.00,179.25"/>
    </edge>
    <edge id=":J1_5" function="internal">
        <lane id=":J1_5_0" index="0" speed="2.50" length="1.87" width="1.50" shape="404.00,180.75 403.44,180.38 403.25,180.00 403.44,179.62 403.73,179.43"/>
    </edge>
    <edge id=":J1_11" function="internal">
        <lane id=":J1_11_0" index="0" speed="2.50" length="0.32" width="1.50" shape="403.73,179.43 404.00,179.25"/>
    </edge>
    <edge id=":J1_6" function="internal">
        <lane id=":J1_6_0" index="0" speed="13.90" length="8.00" width="1.50" shape="396.00,179.25 404.00,179.25"/>
    </edge>
    <edge id=":J1_7" function="internal">
        <lane id=":J1_7_0" index="0" speed="13.90" length="8.00" width="1.50" shape="396.00,179.25 404.00,179.25"/>
    </edge>
    <edge id=":J1_8" function="internal">
        <lane id=":J1_8_0" index="0" speed="2.50" length="1.87" width="1.50" shape="396.00,179.25 396.56,179.62 396.75,180.00 396.56,180.38 396.27,180.57"/>
    </edge>
    <edge id=":J1_12" function="internal">
        <lane id=":J1_12_0" index="0" speed="2.50" length="0.32" width="1.50" shape="396.27,180.57 396.00,180.75"/>
    </edge>
    <edge id=":J2_0" function="internal">
        <lane id=":J2_0_0" index="0" speed="2.50" length="2.19" width="1.50" shape="199.25,0.00 199.62,-0.56 200.00,-0.75 200.38,-0.56 200.75,0.00"/>
    </edge>
    <edge id=":J3_0" function="internal">
        <lane id=":J3_0_0" index="0" speed="2.50" length="2.19" width="1.50" shape="200.75,360.00 200.38,360.56 200.00,360.75 199.62,360.56 199.25,360.00"/>
    </edge>
    <edge id=":J4_0" function="internal">
        <lane id=":J4_0_0" index="0" speed="2.50" length="2.19" width="1.50" shape="0.00,180.75 -0.56,180.38 -0.75,180.00 -0.56,179.62 0.00,179.25"/>
    </edge>
    <edge id=":J5_0" function="internal">
        <lane id=":J5_0_0" index="0" speed="2.50" length="2.19" width="1.50" shape="599.25,125.00 599.62,124.44 600.00,124.25 600.38,124.44 600.75,125.00"/>
    </edge>
    <edge id=":J6_0" function="internal">
        <lane id=":J6_0_0" index="0" speed="2.50" length="2.19" width="1.50" shape="600.00,179.25 600.56,179.62 600.75,180.00 600.56,180.38 600.00,180.75"/>
    </edge>

    <edge id="R0_J0_J4" from="J0" to="J4" priority="-1">
        <lane id="R0_J0_J4_0" index="0" speed="13.90" length="194.50" width="1.50" shape="194.50,180.75 0.00,180.75"/>
    </edge>
    <edge id="R0_J4_J0" from="J4" to="J0" priority="-1">
        <lane id="R0_J4_J0_0" index="0" speed="13.90" length="194.50" width="1.50" shape="0.00,179.25 194.50,179.25"/>
    </edge>
    <edge id="R1_J0_J1" from="J0" to="J1" priority="-1">
        <lane id="R1_J0_J1_0" index="0" speed="13.90" length="190.50" width="1.50" shape="205.50,179.25 396.00,179.25"/>
    </edge>
    <edge id="R1_J1_J0" from="J1" to="J0" priority="-1">
        <lane id="R1_J1_J0_0" index="0" speed="13.90" length="190.50" width="1.50" shape="396.00,180.75 205.50,180.75"/>
    </edge>
    <edge id="R2_J1_J6" from="J1" to="J6" priority="-1">
        <lane id="R2_J1_J6_0" index="0" speed="13.90" length="196.00" width="1.50" shape="404.00,179.25 600.00,179.25"/>
    </edge>
    <edge id="R2_J6_J1" from="J6" to="J1" priority="-1">
        <lane id="R2_J6_J1_0" index="0" speed="13.90" length="196.00" width="1.50" shape="600.00,180.75 404.00,180.75"/>
    </edge>
    <edge id="R3_J0_J2" from="J0" to="J2" priority="-1">
        <lane id="R3_J0_J2_0" index="0" speed="13.90" length="174.50" width="1.50" shape="199.25,174.50 199.25,0.00"/>
    </edge>
    <edge id="R3_J2_J0" from="J2" to="J0" priority="-1">
        <lane id="R3_J2_J0_0" index="0" speed="13.90" length="174.50" width="1.50" shape="200.75,0.00 200.75,174.50"/>
    </edge>
    <edge id="R4_J0_J3" from="J0" to="J3" priority="-1">
        <lane id="R4_J0_J3_0" index="0" speed="13.90" length="174.50" width="1.50" shape="200.75,185.50 200.75,360.00"/>
    </edge>
    <edge id="R4_J3_J0" from="J3" to="J0" priority="-1">
        <lane id="R4_J3_J0_0" index="0" speed="13.90" length="174.50" width="1.50" shape="199.25,360.00 199.25,185.50"/>
    </edge>
    <edge id="R5_J1_J5" from="J1" to="J5" priority="-1" shape="400.00,180.00 600.00,180.00 600.00,125.00">
        <lane id="R5_J1_J5_0" index="0" speed="13.90" length="249.50" width="1.50" shape="404.00,179.25 599.25,179.25 599.25,125.00"/>
    </edge>
    <edge id="R5_J5_J1" from="J5" to="J1" priority="-1" shape="600.00,125.00 600.00,180.00 400.00,180.00">
        <lane id="R5_J5_J1_0" index="0" speed="13.90" length="252.50" width="1.50" shape="600.75,125.00 600.75,180.75 404.00,180.75"/>
    </edge>

    <tlLogic id="J0" type="static" programID="0" offset="0">
        <phase duration="42" state="GGggrrrrGGggrrrr"/>
        <phase duration="3"  state="yyyyrrrryyyyrrrr"/>
        <phase duration="42" state="rrrrGGggrrrrGGgg"/>
        <phase duration="3"  state="rrrryyyyrrrryyyy"/>
    </tlLogic>
    <tlLogic id="J1" type="static" programID="0" offset="0">
        <phase duration="42" state="GggrrrGGg"/>
        <phase duration="3"  state="yyyrrrGyy"/>
        <phase duration="42" state="rrrGGgGrr"/>
        <phase duration="3"  state="rrryyyGrr"/>
    </tlLogic>

    <junction id="J0" type="traffic_light" x="200.00" y="180.00" incLanes="R4_J3_J0_0 R1_J1_J0_0 R3_J2_J0_0 R0_J4_J0_0" intLanes=":J0_0_0 :J0_1_0 :J0_16_0 :J0_17_0 :J0_4_0 :J0_5_0 :J0_18_0 :J0_19_0 :J0_8_0 :J0_9_0 :J0_20_0 :J0_21_0 :J0_12_0 :J0_13_0 :J0_22_0 :J0_23_0" shape="198.50,185.50 201.50,185.50 205.50,181.50 205.50,178.50 201.50,174.50 198.50,174.50 194.50,178.50 194.50,181.50">
        <request index="0"  response="0000000000000000" foes="1000010000100000" cont="0"/>
        <request index="1"  response="0100000001000000" foes="0111110001100000" cont="0"/>
        <request index="2"  response="0100001101000000" foes="0110001111100000" cont="1"/>
        <request index="3"  response="0100001000010000" foes="0100001000010000" cont="1"/>
        <request index="4"  response="0000001000000000" foes="0100001000001000" cont="0"/>
        <request index="5"  response="0000011000000111" foes="1100011000000111" cont="0"/>
        <request index="6"  response="0011011000000110" foes="0011111000000110" cont="1"/>
        <request index="7"  response="0010000100000100" foes="0010000100000100" cont="1"/>
        <request index="8"  response="0000000000000000" foes="0010000010000100" cont="0"/>
        <request index="9"  response="0100000001000000" foes="0110000001111100" cont="0"/>
        <request index="10" response="0100000001000011" foes="1110000001100011" cont="1"/>
        <request index="11" response="0001000001000010" foes="0001000001000010" cont="1"/>
        <request index="12" response="0000000000000010" foes="0000100001000010" cont="0"/>
        <request index="13" response="0000011100000110" foes="0000011111000110" cont="0"/>
        <request index="14" response="0000011000110110" foes="0000011000111110" cont="1"/>
        <request index="15" response="0000010000100001" foes="0000010000100001" cont="1"/>
    </junction>
    <junction id="J1" type="traffic_light" x="400.00" y="180.00" incLanes="R2_J6_J1_0 R5_J5_J1_0 R1_J0_J1_0" intLanes=":J1_0_0 :J1_9_0 :J1_10_0 :J1_3_0 :J1_4_0 :J1_11_0 :J1_6_0 :J1_7_0 :J1_12_0" shape="404.00,181.50 404.00,178.50 396.00,178.50 396.00,181.50">
        <request index="0" response="000000000" foes="100001000" cont="0"/>
        <request index="1" response="011010000" foes="011111000" cont="1"/>
        <request index="2" response="010010000" foes="010010000" cont="1"/>
        <request index="3" response="010000011" foes="110000011" cont="0"/>
        <request index="4" response="010000000" foes="010000110" cont="0"/>
        <request index="5" response="001000010" foes="001000010" cont="1"/>
        <request index="6" response="000000000" foes="000100010" cont="0"/>
        <request index="7" response="000000000" foes="000011110" cont="0"/>
        <request index="8" response="000001001" foes="000001001" cont="1"/>
    </junction>
    <junction id="J2" type="priority" x="200.00" y="0.00" incLanes="R3_J0_J2_0" intLanes=":J2_0_0" shape="200.00,0.00 198.50,0.00 200.00,0.00">
        <request index="0" response="0" foes="0" cont="0"/>
    </junction>
    <junction id="J3" type="priority" x="200.00" y="360.00" incLanes="R4_J0_J3_0" intLanes=":J3_0_0" shape="200.00,360.00 201.50,360.00 200.00,360.00">
        <request index="0" response="0" foes="0" cont="0"/>
    </junction>
    <junction id="J4" type="priority" x="0.00" y="180.00" incLanes="R0_J0_J4_0" intLanes=":J4_0_0" shape="0.00,180.00 0.00,181.50 0.00,180.00">
        <request index="0" response="0" foes="0" cont="0"/>
    </junction>
    <junction id="J5" type="priority" x="600.00" y="125.00" incLanes="R5_J1_J5_0" intLanes=":J5_0_0" shape="600.00,125.00 598.50,125.00 600.00,125.00">
        <request index="0" response="0" foes="0" cont="0"/>
    </junction>
    <junction id="J6" type="priority" x="600.00" y="180.00" incLanes="R2_J1_J6_0" intLanes=":J6_0_0" shape="600.00,180.00 600.00,178.50 600.00,180.00">
        <request index="0" response="0" foes="0" cont="0"/>
    </junction>

    <junction id=":J0_16_0" type="internal" x="200.64" y="181.09" incLanes=":J0_2_0 R3_J2_J0_0" intLanes=":J0_5_0 :J0_6_0 :J0_7_0 :J0_8_0 :J0_9_0 :J0_13_0 :J0_14_0"/>
    <junction id=":J0_17_0" type="internal" x="200.57" y="185.23" incLanes=":J0_3_0 R0_J4_J0_0 R1_J1_J0_0 R3_J2_J0_0" intLanes=":J0_4_0 :J0_9_0 :J0_14_0"/>
    <junction id=":J0_18_0" type="internal" x="201.09" y="179.36" incLanes=":J0_6_0 R0_J4_J0_0" intLanes=":J0_1_0 :J0_2_0 :J0_9_0 :J0_10_0 :J0_11_0 :J0_12_0 :J0_13_0"/>
    <junction id=":J0_19_0" type="internal" x="205.23" y="179.43" incLanes=":J0_7_0 R0_J4_J0_0 R3_J2_J0_0 R4_J3_J0_0" intLanes=":J0_2_0 :J0_8_0 :J0_13_0"/>
    <junction id=":J0_20_0" type="internal" x="199.36" y="178.91" incLanes=":J0_10_0 R4_J3_J0_0" intLanes=":J0_0_0 :J0_1_0 :J0_5_0 :J0_6_0 :J0_13_0 :J0_14_0 :J0_15_0"/>
    <junction id=":J0_21_0" type="internal" x="199.43" y="174.77" incLanes=":J0_11_0 R0_J4_J0_0 R1_J1_J0_0 R4_J3_J0_0" intLanes=":J0_1_0 :J0_6_0 :J0_12_0"/>
    <junction id=":J0_22_0" type="internal" x="198.91" y="180.64" incLanes=":J0_14_0 R1_J1_J0_0" intLanes=":J0_1_0 :J0_2_0 :J0_3_0 :J0_4_0 :J0_5_0 :J0_9_0 :J0_10_0"/>
    <junction id=":J0_23_0" type="internal" x="194.77" y="180.57" incLanes=":J0_15_0 R1_J1_J0_0 R3_J2_J0_0 R4_J3_J0_0" intLanes=":J0_0_0 :J0_5_0 :J0_10_0"/>
    <junction id=":J1_9_0" type="internal" x="404.00" y="180.00" incLanes=":J1_1_0 R1_J0_J1_0" intLanes=":J1_3_0 :J1_5_0 :J1_6_0 :J1_7_0"/>
    <junction id=":J1_10_0" type="internal" x="403.73" y="179.43" incLanes=":J1_2_0 R1_J0_J1_0 R5_J5_J1_0" intLanes=":J1_4_0 :J1_7_0"/>
    <junction id=":J1_11_0" type="internal" x="403.73" y="179.43" incLanes=":J1_5_0 R1_J0_J1_0 R2_J6_J1_0" intLanes=":J1_1_0 :J1_6_0"/>
    <junction id=":J1_12_0" type="internal" x="396.27" y="180.57" incLanes=":J1_8_0 R2_J6_J1_0 R5_J5_J1_0" intLanes=":J1_0_0 :J1_3_0"/>

    <connection from="R0_J0_J4" to="R0_J4_J0" fromLane="0" toLane="0" via=":J4_0_0" dir="t" state="M"/>
    <connection from="R0_J4_J0" to="R3_J0_J2" fromLane="0" toLane="0" via=":J0_12_0" tl="J0" linkIndex="12" dir="r" state="o"/>
    <connection from="R0_J4_J0" to="R1_J0_J1" fromLane="0" toLane="0" via=":J0_13_0" tl="J0" linkIndex="13" dir="s" state="o"/>
    <connection from="R0_J4_J0" to="R4_J0_J3" fromLane="0" toLane="0" via=":J0_14_0" tl="J0" linkIndex="14" dir="l" state="o"/>
    <connection from="R0_J4_J0" to="R0_J0_J4" fromLane="0" toLane="0" via=":J0_15_0" tl="J0" linkIndex="15" dir="t" state="o"/>
    <connection from="R1_J0_J1" to="R5_J1_J5" fromLane="0" toLane="0" via=":J1_6_0" tl="J1" linkIndex="6" dir="s" state="O"/>
    <connection from="R1_J0_J1" to="R2_J1_J6" fromLane="0" toLane="0" via=":J1_7_0" tl="J1" linkIndex="7" dir="s" state="O"/>
    <connection from="R1_J0_J1" to="R1_J1_J0" fromLane="0" toLane="0" via=":J1_8_0" tl="J1" linkIndex="8" dir="t" state="o"/>
    <connection from="R1_J1_J0" to="R4_J0_J3" fromLane="0" toLane="0" via=":J0_4_0" tl="J0" linkIndex="4" dir="r" state="o"/>
    <connection from="R1_J1_J0" to="R0_J0_J4" fromLane="0" toLane="0" via=":J0_5_0" tl="J0" linkIndex="5" dir="s" state="o"/>
    <connection from="R1_J1_J0" to="R3_J0_J2" fromLane="0" toLane="0" via=":J0_6_0" tl="J0" linkIndex="6" dir="l" state="o"/>
    <connection from="R1_J1_J0" to="R1_J0_J1" fromLane="0" toLane="0" via=":J0_7_0" tl="J0" linkIndex="7" dir="t" state="o"/>
    <connection from="R2_J1_J6" to="R2_J6_J1" fromLane="0" toLane="0" via=":J6_0_0" dir="t" state="M"/>
    <connection from="R2_J6_J1" to="R1_J1_J0" fromLane="0" toLane="0" via=":J1_0_0" tl="J1" linkIndex="0" dir="s" state="O"/>
    <connection from="R2_J6_J1" to="R5_J1_J5" fromLane="0" toLane="0" via=":J1_1_0" tl="J1" linkIndex="1" dir="l" state="o"/>
    <connection from="R2_J6_J1" to="R2_J1_J6" fromLane="0" toLane="0" via=":J1_2_0" tl="J1" linkIndex="2" dir="t" state="o"/>
    <connection from="R3_J0_J2" to="R3_J2_J0" fromLane="0" toLane="0" via=":J2_0_0" dir="t" state="M"/>
    <connection from="R3_J2_J0" to="R1_J0_J1" fromLane="0" toLane="0" via=":J0_8_0" tl="J0" linkIndex="8" dir="r" state="O"/>
    <connection from="R3_J2_J0" to="R4_J0_J3" fromLane="0" toLane="0" via=":J0_9_0" tl="J0" linkIndex="9" dir="s" state="O"/>
    <connection from="R3_J2_J0" to="R0_J0_J4" fromLane="0" toLane="0" via=":J0_10_0" tl="J0" linkIndex="10" dir="l" state="o"/>
    <connection from="R3_J2_J0" to="R3_J0_J2" fromLane="0" toLane="0" via=":J0_11_0" tl="J0" linkIndex="11" dir="t" state="o"/>
    <connection from="R4_J0_J3" to="R4_J3_J0" fromLane="0" toLane="0" via=":J3_0_0" dir="t" state="M"/>
    <connection from="R4_J3_J0" to="R0_J0_J4" fromLane="0" toLane="0" via=":J0_0_0" tl="J0" linkIndex="0" dir="r" state="O"/>
    <connection from="R4_J3_J0" to="R3_J0_J2" fromLane="0" toLane="0" via=":J0_1_0" tl="J0" linkIndex="1" dir="s" state="O"/>
    <connection from="R4_J3_J0" to="R1_J0_J1" fromLane="0" toLane="0" via=":J0_2_0" tl="J0" linkIndex="2" dir="l" state="o"/>
    <connection from="R4_J3_J0" to="R4_J0_J3" fromLane="0" toLane="0" via=":J0_3_0" tl="J0" linkIndex="3" dir="t" state="o"/>
    <connection from="R5_J1_J5" to="R5_J5_J1" fromLane="0" toLane="0" via=":J5_0_0" dir="t" state="M"/>
    <connection from="R5_J5_J1" to="R1_J1_J0" fromLane="0" toLane="0" via=":J1_3_0" tl="J1" linkIndex="3" dir="s" state="o"/>
    <connection from="R5_J5_J1" to="R2_J1_J6" fromLane="0" toLane="0" via=":J1_4_0" tl="J1" linkIndex="4" dir="l" state="o"/>
    <connection from="R5_J5_J1" to="R5_J1_J5" fromLane="0" toLane="0" via=":J1_5_0" tl="J1" linkIndex="5" dir="t" state="o"/>

    <connection from=":J0_0" to="R0_J0_J4" fromLane="0" toLane="0" dir="r" state="M"/>
    <connection from=":J0_1" to="R3_J0_J2" fromLane="0" toLane="0" dir="s" state="M"/>
    <connection from=":J0_2" to="R1_J0_J1" fromLane="0" toLane="0" via=":J0_16_0" dir="l" state="m"/>
    <connection from=":J0_16" to="R1_J0_J1" fromLane="0" toLane="0" dir="l" state="M"/>
    <connection from=":J0_3" to="R4_J0_J3" fromLane="0" toLane="0" via=":J0_17_0" dir="t" state="m"/>
    <connection from=":J0_17" to="R4_J0_J3" fromLane="0" toLane="0" dir="t" state="M"/>
    <connection from=":J0_4" to="R4_J0_J3" fromLane="0" toLane="0" dir="r" state="M"/>
    <connection from=":J0_5" to="R0_J0_J4" fromLane="0" toLane="0" dir="s" state="M"/>
    <connection from=":J0_6" to="R3_J0_J2" fromLane="0" toLane="0" via=":J0_18_0" dir="l" state="m"/>
    <connection from=":J0_18" to="R3_J0_J2" fromLane="0" toLane="0" dir="l" state="M"/>
    <connection from=":J0_7" to="R1_J0_J1" fromLane="0" toLane="0" via=":J0_19_0" dir="t" state="m"/>
    <connection from=":J0_19" to="R1_J0_J1" fromLane="0" toLane="0" dir="t" state="M"/>
    <connection from=":J0_8" to="R1_J0_J1" fromLane="0" toLane="0" dir="r" state="M"/>
    <connection from=":J0_9" to="R4_J0_J3" fromLane="0" toLane="0" dir="s" state="M"/>
    <connection from=":J0_10" to="R0_J0_J4" fromLane="0" toLane="0" via=":J0_20_0" dir="l" state="m"/>
    <connection from=":J0_20" to="R0_J0_J4" fromLane="0" toLane="0" dir="l" state="M"/>
    <connection from=":J0_11" to="R3_J0_J2" fromLane="0" toLane="0" via=":J0_21_0" dir="t" state="m"/>
    <connection from=":J0_21" to="R3_J0_J2" fromLane="0" toLane="0" dir="t" state="M"/>
    <connection from=":J0_12" to="R3_J0_J2" fromLane="0" toLane="0" dir="r" state="M"/>
    <connection from=":J0_13" to="R1_J0_J1" fromLane="0" toLane="0" dir="s" state="M"/>
    <connection from=":J0_14" to="R4_J0_J3" fromLane="0" toLane="0" via=":J0_22_0" dir="l" state="m"/>
    <connection from=":J0_22" to="R4_J0_J3" fromLane="0" toLane="0" dir="l" state="M"/>
    <connection from=":J0_15" to="R0_J0_J4" fromLane="0" toLane="0" via=":J0_23_0" dir="t" state="m"/>
    <connection from=":J0_23" to="R0_J0_J4" fromLane="0" toLane="0" dir="t" state="M"/>
    <connection from=":J1_0" to="R1_J1_J0" fromLane="0" toLane="0" dir="s" state="M"/>
    <connection from=":J1_1" to="R5_J1_J5" fromLane="0" toLane="0" via=":J1_9_0" dir="l" state="m"/>
    <connection from=":J1_9" to="R5_J1_J5" fromLane="0" toLane="0" dir="l" state="M"/>
    <connection from=":J1_2" to="R2_J1_J6" fromLane="0" toLane="0" via=":J1_10_0" dir="t" state="m"/>
    <connection from=":J1_10" to="R2_J1_J6" fromLane="0" toLane="0" dir="t" state="M"/>
    <connection from=":J1_3" to="R1_J1_J0" fromLane="0" toLane="0" dir="s" state="M"/>
    <connection from=":J1_4" to="R2_J1_J6" fromLane="0" toLane="0" dir="l" state="M"/>
    <connection from=":J1_5" to="R5_J1_J5" fromLane="0" toLane="0" via=":J1_11_0" dir="t" state="m"/>
    <connection from=":J1_11" to="R5_J1_J5" fromLane="0" toLane="0" dir="t" state="M"/>
    <connection from=":J1_6" to="R5_J1_J5" fromLane="0" toLane="0" dir="s" state="M"/>
    <connection from=":J1_7" to="R2_J1_J6" fromLane="0" toLane="0" dir="s" state="M"/>
    <connection from=":J1_8" to="R1_J1_J0" fromLane="0" toLane="0" via=":J1_12_0" dir="t" state="m"/>
    <connection from=":J1_12" to="R1_J1_J0" fromLane="0" toLane="0" dir="t" state="M"/>
    <connection from=":J2_0" to="R3_J2_J0" fromLane="0" toLane="0" dir="t" state="M"/>
    <connection from=":J3_0" to="R4_J3_J0" fromLane="0" toLane="0" dir="t" state="M"/>
    <connection from=":J4_0" to="R0_J4_J0" fromLane="0" toLane="0" dir="t" state="M"/>
    <connection from=":J5_0" to="R5_J5_J1" fromLane="0" toLane="0" dir="t" state="M"/>
    <connection from=":J6_0" to="R2_J6_J1" fromLane="0" toLane="0" dir="t" state="M"/>

</net>
