<?xml version="1.0" encoding="UTF-8"?>

<!-- generated on 2026-04-12T19:22:28.926337+05:30 by Eclipse SUMO netconvert 1.26.0
<netconvertConfiguration xmlns:xsi="http://www.w3.org/2001/XMLSchema-instance" xsi:noNamespaceSchemaLocation="http://sumo.dlr.de/xsd/netconvertConfiguration.xsd">

    <input>
        <node-files value="C:\Users\santhosh\OneDrive\Desktop\trafiic pro\web_runs\20260412_192209_454840\area.nod.xml"/>
        <edge-files value="C:\Users\santhosh\OneDrive\Desktop\trafiic pro\web_runs\20260412_192209_454840\area.edg.xml"/>
    </input>

    <output>
        <output-file value="C:\Users\santhosh\OneDrive\Desktop\trafiic pro\web_runs\20260412_192209_454840\area.net.xml"/>
    </output>

    <building_defaults>
        <default.lanewidth value="1.5"/>
    </building_defaults>

    <junctions>
        <junctions.corner-detail value="0"/>
    </junctions>

</netconvertConfiguration>
-->

<net version="1.20" limitTurnSpeed="5.50" xmlns:xsi="http://www.w3.org/2001/XMLSchema-instance" xsi:noNamespaceSchemaLocation="http://sumo.dlr.de/xsd/net_file.xsd">

    <location netOffset="-55.00,-55.00" convBoundary="0.00,0.00,650.00,390.00" origBoundary="55.00,55.00,705.00,445.00" projParameter="!"/>

    <edge id=":J0_0" function="internal">
        <lane id=":J0_0_0" index="0" speed="2.50" length="2.19" width="1.50" shape="8.12,375.58 7.56,375.20 7.37,374.83 7.56,374.45 8.12,374.08"/>
    </edge>
    <edge id=":J1_0" function="internal">
        <lane id=":J1_0_0" index="0" speed="4.16" length="3.63" width="1.50" shape="228.25,373.33 228.11,374.31 227.69,375.02 226.98,375.44 226.00,375.58"/>
    </edge>
    <edge id=":J1_1" function="internal">
        <lane id=":J1_1_0" index="0" speed="2.67" length="1.21" width="1.50" shape="226.00,374.08 226.33,374.03 226.56,373.89 226.70,373.66 226.75,373.33"/>
    </edge>
    <edge id=":J2_0" function="internal">
        <lane id=":J2_0_0" index="0" speed="2.50" length="2.19" width="1.50" shape="488.25,390.00 487.88,390.56 487.50,390.75 487.12,390.56 486.75,390.00"/>
    </edge>
    <edge id=":J3_0" function="internal">
        <lane id=":J3_0_0" index="0" speed="5.85" length="7.66" width="1.50" shape="226.75,70.50 226.45,68.42 225.56,66.94 224.08,66.05 222.00,65.75"/>
    </edge>
    <edge id=":J3_1" function="internal">
        <lane id=":J3_1_0" index="0" speed="13.90" length="11.00" width="1.50" shape="226.75,70.50 226.75,59.50"/>
    </edge>
    <edge id=":J3_2" function="internal">
        <lane id=":J3_2_0" index="0" speed="6.66" length="4.71" width="1.50" shape="226.75,70.50 227.14,67.77 228.14,66.09"/>
    </edge>
    <edge id=":J3_3" function="internal">
        <lane id=":J3_3_0" index="0" speed="2.50" length="1.87" width="1.50" shape="226.75,70.50 227.12,69.94 227.50,69.75 227.88,69.94 228.07,70.23"/>
    </edge>
    <edge id=":J3_16" function="internal">
        <lane id=":J3_16_0" index="0" speed="6.66" length="5.37" width="1.50" shape="228.14,66.09 228.31,65.81 230.27,64.64 233.00,64.25"/>
    </edge>
    <edge id=":J3_17" function="internal">
        <lane id=":J3_17_0" index="0" speed="2.50" length="0.32" width="1.50" shape="228.07,70.23 228.25,70.50"/>
    </edge>
    <edge id=":J3_4" function="internal">
        <lane id=":J3_4_0" index="0" speed="5.85" length="7.66" width="1.50" shape="233.00,65.75 230.92,66.05 229.44,66.94 228.55,68.42 228.25,70.50"/>
    </edge>
    <edge id=":J3_5" function="internal">
        <lane id=":J3_5_0" index="0" speed="13.90" length="11.00" width="1.50" shape="233.00,65.75 222.00,65.75"/>
    </edge>
    <edge id=":J3_6" function="internal">
        <lane id=":J3_6_0" index="0" speed="6.66" length="4.71" width="1.50" shape="233.00,65.75 230.27,65.36 228.59,64.36"/>
    </edge>
    <edge id=":J3_7" function="internal">
        <lane id=":J3_7_0" index="0" speed="2.50" length="1.87" width="1.50" shape="233.00,65.75 232.44,65.38 232.25,65.00 232.44,64.62 232.73,64.43"/>
    </edge>
    <edge id=":J3_18" function="internal">
        <lane id=":J3_18_0" index="0" speed="6.66" length="5.37" width="1.50" shape="228.59,64.36 228.31,64.19 227.14,62.23 226.75,59.50"/>
    </edge>
    <edge id=":J3_19" function="internal">
        <lane id=":J3_19_0" index="0" speed="2.50" length="0.32" width="1.50" shape="232.73,64.43 233.00,64.25"/>
    </edge>
    <edge id=":J3_8" function="internal">
        <lane id=":J3_8_0" index="0" speed="5.85" length="7.66" width="1.50" shape="228.25,59.50 228.55,61.58 229.44,63.06 230.92,63.95 233.00,64.25"/>
    </edge>
    <edge id=":J3_9" function="internal">
        <lane id=":J3_9_0" index="0" speed="13.90" length="11.00" width="1.50" shape="228.25,59.50 228.25,70.50"/>
    </edge>
    <edge id=":J3_10" function="internal">
        <lane id=":J3_10_0" index="0" speed="6.66" length="4.71" width="1.50" shape="228.25,59.50 227.86,62.23 226.86,63.91"/>
    </edge>
    <edge id=":J3_11" function="internal">
        <lane id=":J3_11_0" index="0" speed="2.50" length="1.87" width="1.50" shape="228.25,59.50 227.88,60.06 227.50,60.25 227.12,60.06 226.93,59.77"/>
    </edge>
    <edge id=":J3_20" function="internal">
        <lane id=":J3_20_0" index="0" speed="6.66" length="5.37" width="1.50" shape="226.86,63.91 226.69,64.19 224.73,65.36 222.00,65.75"/>
    </edge>
    <edge id=":J3_21" function="internal">
        <lane id=":J3_21_0" index="0" speed="2.50" length="0.32" width="1.50" shape="226.93,59.77 226.75,59.50"/>
    </edge>
    <edge id=":J3_12" function="internal">
        <lane id=":J3_12_0" index="0" speed="5.85" length="7.66" width="1.50" shape="222.00,64.25 224.08,63.95 225.56,63.06 226.45,61.58 226.75,59.50"/>
    </edge>
    <edge id=":J3_13" function="internal">
        <lane id=":J3_13_0" index="0" speed="13.90" length="11.00" width="1.50" shape="222.00,64.25 233.00,64.25"/>
    </edge>
    <edge id=":J3_14" function="internal">
        <lane id=":J3_14_0" index="0" speed="6.66" length="4.71" width="1.50" shape="222.00,64.25 224.73,64.64 226.41,65.64"/>
    </edge>
    <edge id=":J3_15" function="internal">
        <lane id=":J3_15_0" index="0" speed="2.50" length="1.87" width="1.50" shape="222.00,64.25 222.56,64.62 222.75,65.00 222.56,65.38 222.27,65.57"/>
    </edge>
    <edge id=":J3_22" function="internal">
        <lane id=":J3_22_0" index="0" speed="6.66" length="5.37" width="1.50" shape="226.41,65.64 226.69,65.81 227.86,67.77 228.25,70.50"/>
    </edge>
    <edge id=":J3_23" function="internal">
        <lane id=":J3_23_0" index="0" speed="2.50" length="0.32" width="1.50" shape="222.27,65.57 222.00,65.75"/>
    </edge>
    <edge id=":J4_0" function="internal">
        <lane id=":J4_0_0" index="0" speed="5.85" length="7.66" width="1.50" shape="486.75,70.50 486.45,68.42 485.56,66.94 484.08,66.05 482.00,65.75"/>
    </edge>
    <edge id=":J4_1" function="internal">
        <lane id=":J4_1_0" index="0" speed="13.90" length="11.00" width="1.50" shape="486.75,70.50 486.75,59.50"/>
    </edge>
    <edge id=":J4_2" function="internal">
        <lane id=":J4_2_0" index="0" speed="6.66" length="4.71" width="1.50" shape="486.75,70.50 487.14,67.77 488.14,66.09"/>
    </edge>
    <edge id=":J4_3" function="internal">
        <lane id=":J4_3_0" index="0" speed="2.50" length="1.87" width="1.50" shape="486.75,70.50 487.12,69.94 487.50,69.75 487.88,69.94 488.07,70.23"/>
    </edge>
    <edge id=":J4_16" function="internal">
        <lane id=":J4_16_0" index="0" speed="6.66" length="5.37" width="1.50" shape="488.14,66.09 488.31,65.81 490.27,64.64 493.00,64.25"/>
    </edge>
    <edge id=":J4_17" function="internal">
        <lane id=":J4_17_0" index="0" speed="2.50" length="0.32" width="1.50" shape="488.07,70.23 488.25,70.50"/>
    </edge>
    <edge id=":J4_4" function="internal">
        <lane id=":J4_4_0" index="0" speed="5.85" length="7.66" width="1.50" shape="493.00,65.75 490.92,66.05 489.44,66.94 488.55,68.42 488.25,70.50"/>
    </edge>
    <edge id=":J4_5" function="internal">
        <lane id=":J4_5_0" index="0" speed="13.90" length="11.00" width="1.50" shape="493.00,65.75 482.00,65.75"/>
    </edge>
    <edge id=":J4_6" function="internal">
        <lane id=":J4_6_0" index="0" speed="6.66" length="4.71" width="1.50" shape="493.00,65.75 490.27,65.36 488.59,64.36"/>
    </edge>
    <edge id=":J4_7" function="internal">
        <lane id=":J4_7_0" index="0" speed="2.50" length="1.87" width="1.50" shape="493.00,65.75 492.44,65.38 492.25,65.00 492.44,64.62 492.73,64.43"/>
    </edge>
    <edge id=":J4_18" function="internal">
        <lane id=":J4_18_0" index="0" speed="6.66" length="5.37" width="1.50" shape="488.59,64.36 488.31,64.19 487.14,62.23 486.75,59.50"/>
    </edge>
    <edge id=":J4_19" function="internal">
        <lane id=":J4_19_0" index="0" speed="2.50" length="0.32" width="1.50" shape="492.73,64.43 493.00,64.25"/>
    </edge>
    <edge id=":J4_8" function="internal">
        <lane id=":J4_8_0" index="0" speed="5.85" length="7.66" width="1.50" shape="488.25,59.50 488.55,61.58 489.44,63.06 490.92,63.95 493.00,64.25"/>
    </edge>
    <edge id=":J4_9" function="internal">
        <lane id=":J4_9_0" index="0" speed="13.90" length="11.00" width="1.50" shape="488.25,59.50 488.25,70.50"/>
    </edge>
    <edge id=":J4_10" function="internal">
        <lane id=":J4_10_0" index="0" speed="6.66" length="4.71" width="1.50" shape="488.25,59.50 487.86,62.23 486.86,63.91"/>
    </edge>
    <edge id=":J4_11" function="internal">
        <lane id=":J4_11_0" index="0" speed="2.50" length="1.87" width="1.50" shape="488.25,59.50 487.88,60.06 487.50,60.25 487.12,60.06 486.93,59.77"/>
    </edge>
    <edge id=":J4_20" function="internal">
        <lane id=":J4_20_0" index="0" speed="6.66" length="5.37" width="1.50" shape="486.86,63.91 486.69,64.19 484.73,65.36 482.00,65.75"/>
    </edge>
    <edge id=":J4_21" function="internal">
        <lane id=":J4_21_0" index="0" speed="2.50" length="0.32" width="1.50" shape="486.93,59.77 486.75,59.50"/>
    </edge>
    <edge id=":J4_12" function="internal">
        <lane id=":J4_12_0" index="0" speed="5.85" length="7.66" width="1.50" shape="482.00,64.25 484.08,63.95 485.56,63.06 486.45,61.58 486.75,59.50"/>
    </edge>
    <edge id=":J4_13" function="internal">
        <lane id=":J4_13_0" index="0" speed="13.90" length="11.00" width="1.50" shape="482.00,64.25 493.00,64.25"/>
    </edge>
    <edge id=":J4_14" function="internal">
        <lane id=":J4_14_0" index="0" speed="6.66" length="4.71" width="1.50" shape="482.00,64.25 484.73,64.64 486.41,65.64"/>
    </edge>
    <edge id=":J4_15" function="internal">
        <lane id=":J4_15_0" index="0" speed="2.50" length="1.87" width="1.50" shape="482.00,64.25 482.56,64.62 482.75,65.00 482.56,65.38 482.27,65.57"/>
    </edge>
    <edge id=":J4_22" function="internal">
        <lane id=":J4_22_0" index="0" speed="6.66" length="5.37" width="1.50" shape="486.41,65.64 486.69,65.81 487.86,67.77 488.25,70.50"/>
    </edge>
    <edge id=":J4_23" function="internal">
        <lane id=":J4_23_0" index="0" speed="2.50" length="0.32" width="1.50" shape="482.27,65.57 482.00,65.75"/>
    </edge>
    <edge id=":J5_0" function="internal">
        <lane id=":J5_0_0" index="0" speed="2.50" length="2.19" width="1.50" shape="226.75,0.00 227.12,-0.56 227.50,-0.75 227.88,-0.56 228.25,0.00"/>
    </edge>
    <edge id=":J6_0" function="internal">
        <lane id=":J6_0_0" index="0" speed="2.50" length="2.19" width="1.50" shape="486.75,0.00 487.12,-0.56 487.50,-0.75 487.88,-0.56 488.25,0.00"/>
    </edge>
    <edge id=":J7_0" function="internal">
        <lane id=":J7_0_0" index="0" speed="2.50" length="2.19" width="1.50" shape="0.00,65.75 -0.56,65.38 -0.75,65.00 -0.56,64.62 0.00,64.25"/>
    </edge>
    <edge id=":J8_0" function="internal">
        <lane id=":J8_0_0" index="0" speed="2.50" length="2.19" width="1.50" shape="650.00,64.25 650.56,64.62 650.75,65.00 650.56,65.38 650.00,65.75"/>
    </edge>

    <edge id="R0_J0_J1" from="J0" to="J1" priority="-1">
        <lane id="R0_J0_J1_0" index="0" speed="13.90" length="217.88" width="1.50" shape="8.12,374.08 226.00,374.08"/>
    </edge>
    <edge id="R0_J1_J0" from="J1" to="J0" priority="-1">
        <lane id="R0_J1_J0_0" index="0" speed="13.90" length="217.88" width="1.50" shape="226.00,375.58 8.12,375.58"/>
    </edge>
    <edge id="R1_J1_J3" from="J1" to="J3" priority="-1">
        <lane id="R1_J1_J3_0" index="0" speed="13.90" length="302.83" width="1.50" shape="226.75,373.33 226.75,70.50"/>
    </edge>
    <edge id="R1_J3_J1" from="J3" to="J1" priority="-1">
        <lane id="R1_J3_J1_0" index="0" speed="13.90" length="302.83" width="1.50" shape="228.25,70.50 228.25,373.33"/>
    </edge>
    <edge id="R2_J2_J4" from="J2" to="J4" priority="-1">
        <lane id="R2_J2_J4_0" index="0" speed="13.90" length="319.50" width="1.50" shape="486.75,390.00 486.75,70.50"/>
    </edge>
    <edge id="R2_J4_J2" from="J4" to="J2" priority="-1">
        <lane id="R2_J4_J2_0" index="0" speed="13.90" length="319.50" width="1.50" shape="488.25,70.50 488.25,390.00"/>
    </edge>
    <edge id="R3_J3_J5" from="J3" to="J5" priority="-1">
        <lane id="R3_J3_J5_0" index="0" speed="13.90" length="59.50" width="1.50" shape="226.75,59.50 226.75,0.00"/>
    </edge>
    <edge id="R3_J5_J3" from="J5" to="J3" priority="-1">
        <lane id="R3_J5_J3_0" index="0" speed="13.90" length="59.50" width="1.50" shape="228.25,0.00 228.25,59.50"/>
    </edge>
    <edge id="R4_J4_J6" from="J4" to="J6" priority="-1">
        <lane id="R4_J4_J6_0" index="0" speed="13.90" length="59.50" width="1.50" shape="486.75,59.50 486.75,0.00"/>
    </edge>
    <edge id="R4_J6_J4" from="J6" to="J4" priority="-1">
        <lane id="R4_J6_J4_0" index="0" speed="13.90" length="59.50" width="1.50" shape="488.25,0.00 488.25,59.50"/>
    </edge>
    <edge id="R5_J3_J7" from="J3" to="J7" priority="-1">
        <lane id="R5_J3_J7_0" index="0" speed="13.90" length="222.00" width="1.50" shape="222.00,65.75 0.00,65.75"/>
    </edge>
    <edge id="R5_J7_J3" from="J7" to="J3" priority="-1">
        <lane id="R5_J7_J3_0" index="0" speed="13.90" length="222.00" width="1.50" shape="0.00,64.25 222.00,64.25"/>
    </edge>
    <edge id="R6_J3_J4" from="J3" to="J4" priority="-1">
        <lane id="R6_J3_J4_0" index="0" speed="13.90" length="249.00" width="1.50" shape="233.00,64.25 482.00,64.25"/>
    </edge>
    <edge id="R6_J4_J3" from="J4" to="J3" priority="-1">
        <lane id="R6_J4_J3_0" index="0" speed="13.90" length="249.00" width="1.50" shape="482.00,65.75 233.00,65.75"/>
    </edge>
    <edge id="R7_J4_J8" from="J4" to="J8" priority="-1">
        <lane id="R7_J4_J8_0" index="0" speed="13.90" length="157.00" width="1.50" shape="493.00,64.25 650.00,64.25"/>
    </edge>
    <edge id="R7_J8_J4" from="J8" to="J4" priority="-1">
        <lane id="R7_J8_J4_0" index="0" speed="13.90" length="157.00" width="1.50" shape="650.00,65.75 493.00,65.75"/>
    </edge>

    <tlLogic id="J1" type="static" programID="0" offset="0">
        <phase duration="90" state="GG"/>
    </tlLogic>
    <tlLogic id="J3" type="static" programID="0" offset="0">
        <phase duration="42" state="GGggrrrrGGggrrrr"/>
        <phase duration="3"  state="yyyyrrrryyyyrrrr"/>
        <phase duration="42" state="rrrrGGggrrrrGGgg"/>
        <phase duration="3"  state="rrrryyyyrrrryyyy"/>
    </tlLogic>
    <tlLogic id="J4" type="static" programID="0" offset="0">
        <phase duration="42" state="GGggrrrrGGggrrrr"/>
        <phase duration="3"  state="yyyyrrrryyyyrrrr"/>
        <phase duration="42" state="rrrrGGggrrrrGGgg"/>
        <phase duration="3"  state="rrrryyyyrrrryyyy"/>
    </tlLogic>

    <junction id="J0" type="priority" x="8.12" y="374.83" incLanes="R0_J1_J0_0" intLanes=":J0_0_0" shape="8.12,374.83 8.12,376.33 8.12,374.83">
        <request index="0" response="0" foes="0" cont="0"/>
    </junction>
    <junction id="J1" type="traffic_light" x="227.50" y="374.83" incLanes="R1_J3_J1_0 R0_J0_J1_0" intLanes=":J1_0_0 :J1_1_0" shape="229.00,373.33 226.00,373.33 226.00,376.33">
        <request index="0" response="00" foes="00" cont="0"/>
        <request index="1" response="00" foes="00" cont="0"/>
    </junction>
    <junction id="J2" type="priority" x="487.50" y="390.00" incLanes="R2_J4_J2_0" intLanes=":J2_0_0" shape="487.50,390.00 489.00,390.00 487.50,390.00">
        <request index="0" response="0" foes="0" cont="0"/>
    </junction>
    <junction id="J3" type="traffic_light" x="227.50" y="65.00" incLanes="R1_J1_J3_0 R6_J4_J3_0 R3_J5_J3_0 R5_J7_J3_0" intLanes=":J3_0_0 :J3_1_0 :J3_16_0 :J3_17_0 :J3_4_0 :J3_5_0 :J3_18_0 :J3_19_0 :J3_8_0 :J3_9_0 :J3_20_0 :J3_21_0 :J3_12_0 :J3_13_0 :J3_22_0 :J3_23_0" shape="226.00,70.50 229.00,70.50 233.00,66.50 233.00,63.50 229.00,59.50 226.00,59.50 222.00,63.50 222.00,66.50">
        <request index="0"  response="0000000000000000" foes="1000010000100000" cont="0"/>
        <request index="1"  response="0100000001000000" foes="0111110001100000" cont="0"/>
        <request index="2"  response="0100001101000000" foes="0110001111100000" cont="1"/>
        <request index="3"  response="0100001000010000" foes="0100001000010000" cont="1"/>
        <request index="4"  response="0000001000000000" foes="0100001000001000" cont="0"/>
        <request index="5"  response="0000011000000111" foes="1100011000000111" cont="0"/>
        <request index="6"  response="0011011000000110" foes="0011111000000110" cont="1"/>
        <request index="7"  response="0010000100000100" foes="0010000100000100" cont="1"/>
        <request index="8"  response="0000000000000000" foes="0010000010000100" cont="0"/>
        <request index="9"  response="0100000001000000" foes="0110000001111100" cont="0"/>
        <request index="10" response="0100000001000011" foes="1110000001100011" cont="1"/>
        <request index="11" response="0001000001000010" foes="0001000001000010" cont="1"/>
        <request index="12" response="0000000000000010" foes="0000100001000010" cont="0"/>
        <request index="13" response="0000011100000110" foes="0000011111000110" cont="0"/>
        <request index="14" response="0000011000110110" foes="0000011000111110" cont="1"/>
        <request index="15" response="0000010000100001" foes="0000010000100001" cont="1"/>
    </junction>
    <junction id="J4" type="traffic_light" x="487.50" y="65.00" incLanes="R2_J2_J4_0 R7_J8_J4_0 R4_J6_J4_0 R6_J3_J4_0" intLanes=":J4_0_0 :J4_1_0 :J4_16_0 :J4_17_0 :J4_4_0 :J4_5_0 :J4_18_0 :J4_19_0 :J4_8_0 :J4_9_0 :J4_20_0 :J4_21_0 :J4_12_0 :J4_13_0 :J4_22_0 :J4_23_0" shape="486.00,70.50 489.00,70.50 493.00,66.50 493.00,63.50 489.00,59.50 486.00,59.50 482.00,63.50 482.00,66.50">
        <request index="0"  response="0000000000000000" foes="1000010000100000" cont="0"/>
        <request index="1"  response="0100000001000000" foes="0111110001100000" cont="0"/>
        <request index="2"  response="0100001101000000" foes="0110001111100000" cont="1"/>
        <request index="3"  response="0100001000010000" foes="0100001000010000" cont="1"/>
        <request index="4"  response="0000001000000000" foes="0100001000001000" cont="0"/>
        <request index="5"  response="0000011000000111" foes="1100011000000111" cont="0"/>
        <request index="6"  response="0011011000000110" foes="0011111000000110" cont="1"/>
        <request index="7"  response="0010000100000100" foes="0010000100000100" cont="1"/>
        <request index="8"  response="0000000000000000" foes="0010000010000100" cont="0"/>
        <request index="9"  response="0100000001000000" foes="0110000001111100" cont="0"/>
        <request index="10" response="0100000001000011" foes="1110000001100011" cont="1"/>
        <request index="11" response="0001000001000010" foes="0001000001000010" cont="1"/>
        <request index="12" response="0000000000000010" foes="0000100001000010" cont="0"/>
        <request index="13" response="0000011100000110" foes="0000011111000110" cont="0"/>
        <request index="14" response="0000011000110110" foes="0000011000111110" cont="1"/>
        <request index="15" response="0000010000100001" foes="0000010000100001" cont="1"/>
    </junction>
    <junction id="J5" type="priority" x="227.50" y="0.00" incLanes="R3_J3_J5_0" intLanes=":J5_0_0" shape="227.50,0.00 226.00,0.00 227.50,0.00">
        <request index="0" response="0" foes="0" cont="0"/>
    </junction>
    <junction id="J6" type="priority" x="487.50" y="0.00" incLanes="R4_J4_J6_0" intLanes=":J6_0_0" shape="487.50,0.00 486.00,0.00 487.50,0.00">
        <request index="0" response="0" foes="0" cont="0"/>
    </junction>
    <junction id="J7" type="priority" x="0.00" y="65.00" incLanes="R5_J3_J7_0" intLanes=":J7_0_0" shape="0.00,65.00 0.00,66.50 0.00,65.00">
        <request index="0" response="0" foes="0" cont="0"/>
    </junction>
    <junction id="J8" type="priority" x="650.00" y="65.00" incLanes="R7_J4_J8_0" intLanes=":J8_0_0" shape="650.00,65.00 650.00,63.50 650.00,65.00">
        <request index="0" response="0" foes="0" cont="0"/>
    </junction>

    <junction id=":J3_16_0" type="internal" x="228.14" y="66.09" incLanes=":J3_2_0 R3_J5_J3_0" intLanes=":J3_5_0 :J3_6_0 :J3_7_0 :J3_8_0 :J3_9_0 :J3_13_0 :J3_14_0"/>
    <junction id=":J3_17_0" type="internal" x="228.07" y="70.23" incLanes=":J3_3_0 R3_J5_J3_0 R5_J7_J3_0 R6_J4_J3_0" intLanes=":J3_4_0 :J3_9_0 :J3_14_0"/>
    <junction id=":J3_18_0" type="internal" x="228.59" y="64.36" incLanes=":J3_6_0 R5_J7_J3_0" intLanes=":J3_1_0 :J3_2_0 :J3_9_0 :J3_10_0 :J3_11_0 :J3_12_0 :J3_13_0"/>
    <junction id=":J3_19_0" type="internal" x="232.73" y="64.43" incLanes=":J3_7_0 R1_J1_J3_0 R3_J5_J3_0 R5_J7_J3_0" intLanes=":J3_2_0 :J3_8_0 :J3_13_0"/>
    <junction id=":J3_20_0" type="internal" x="226.86" y="63.91" incLanes=":J3_10_0 R1_J1_J3_0" intLanes=":J3_0_0 :J3_1_0 :J3_5_0 :J3_6_0 :J3_13_0 :J3_14_0 :J3_15_0"/>
    <junction id=":J3_21_0" type="internal" x="226.93" y="59.77" incLanes=":J3_11_0 R1_J1_J3_0 R5_J7_J3_0 R6_J4_J3_0" intLanes=":J3_1_0 :J3_6_0 :J3_12_0"/>
    <junction id=":J3_22_0" type="internal" x="226.41" y="65.64" incLanes=":J3_14_0 R6_J4_J3_0" intLanes=":J3_1_0 :J3_2_0 :J3_3_0 :J3_4_0 :J3_5_0 :J3_9_0 :J3_10_0"/>
    <junction id=":J3_23_0" type="internal" x="222.27" y="65.57" incLanes=":J3_15_0 R1_J1_J3_0 R3_J5_J3_0 R6_J4_J3_0" intLanes=":J3_0_0 :J3_5_0 :J3_10_0"/>
    <junction id=":J4_16_0" type="internal" x="488.14" y="66.09" incLanes=":J4_2_0 R4_J6_J4_0" intLanes=":J4_5_0 :J4_6_0 :J4_7_0 :J4_8_0 :J4_9_0 :J4_13_0 :J4_14_0"/>
    <junction id=":J4_17_0" type="internal" x="488.07" y="70.23" incLanes=":J4_3_0 R4_J6_J4_0 R6_J3_J4_0 R7_J8_J4_0" intLanes=":J4_4_0 :J4_9_0 :J4_14_0"/>
    <junction id=":J4_18_0" type="internal" x="488.59" y="64.36" incLanes=":J4_6_0 R6_J3_J4_0" intLanes=":J4_1_0 :J4_2_0 :J4_9_0 :J4_10_0 :J4_11_0 :J4_12_0 :J4_13_0"/>
    <junction id=":J4_19_0" type="internal" x="492.73" y="64.43" incLanes=":J4_7_0 R2_J2_J4_0 R4_J6_J4_0 R6_J3_J4_0" intLanes=":J4_2_0 :J4_8_0 :J4_13_0"/>
    <junction id=":J4_20_0" type="internal" x="486.86" y="63.91" incLanes=":J4_10_0 R2_J2_J4_0" intLanes=":J4_0_0 :J4_1_0 :J4_5_0 :J4_6_0 :J4_13_0 :J4_14_0 :J4_15_0"/>
    <junction id=":J4_21_0" type="internal" x="486.93" y="59.77" incLanes=":J4_11_0 R2_J2_J4_0 R6_J3_J4_0 R7_J8_J4_0" intLanes=":J4_1_0 :J4_6_0 :J4_12_0"/>
    <junction id=":J4_22_0" type="internal" x="486.41" y="65.64" incLanes=":J4_14_0 R7_J8_J4_0" intLanes=":J4_1_0 :J4_2_0 :J4_3_0 :J4_4_0 :J4_5_0 :J4_9_0 :J4_10_0"/>
    <junction id=":J4_23_0" type="internal" x="482.27" y="65.57" incLanes=":J4_15_0 R2_J2_J4_0 R4_J6_J4_0 R7_J8_J4_0" intLanes=":J4_0_0 :J4_5_0 :J4_10_0"/>

    <connection from="R0_J0_J1" to="R1_J1_J3" fromLane="0" toLane="0" via=":J1_1_0" tl="J1" linkIndex="1" dir="r" state="O"/>
    <connection from="R0_J1_J0" to="R0_J0_J1" fromLane="0" toLane="0" via=":J0_0_0" dir="t" state="M"/>
    <connection from="R1_J1_J3" to="R5_J3_J7" fromLane="0" toLane="0" via=":J3_0_0" tl="J3" linkIndex="0" dir="r" state="O"/>
    <connection from="R1_J1_J3" to="R3_J3_J5" fromLane="0" toLane="0" via=":J3_1_0" tl="J3" linkIndex="1" dir="s" state="O"/>
    <connection from="R1_J1_J3" to="R6_J3_J4" fromLane="0" toLane="0" via=":J3_2_0" tl="J3" linkIndex="2" dir="l" state="o"/>
    <connection from="R1_J1_J3" to="R1_J3_J1" fromLane="0" toLane="0" via=":J3_3_0" tl="J3" linkIndex="3" dir="t" state="o"/>
    <connection from="R1_J3_J1" to="R0_J1_J0" fromLane="0" toLane="0" via=":J1_0_0" tl="J1" linkIndex="0" dir="l" state="O"/>
    <connection from="R2_J2_J4" to="R6_J4_J3" fromLane="0" toLane="0" via=":J4_0_0" tl="J4" linkIndex="0" dir="r" state="O"/>
    <connection from="R2_J2_J4" to="R4_J4_J6" fromLane="0" toLane="0" via=":J4_1_0" tl="J4" linkIndex="1" dir="s" state="O"/>
    <connection from="R2_J2_J4" to="R7_J4_J8" fromLane="0" toLane="0" via=":J4_2_0" tl="J4" linkIndex="2" dir="l" state="o"/>
    <connection from="R2_J2_J4" to="R2_J4_J2" fromLane="0" toLane="0" via=":J4_3_0" tl="J4" linkIndex="3" dir="t" state="o"/>
    <connection from="R2_J4_J2" to="R2_J2_J4" fromLane="0" toLane="0" via=":J2_0_0" dir="t" state="M"/>
    <connection from="R3_J3_J5" to="R3_J5_J3" fromLane="0" toLane="0" via=":J5_0_0" dir="t" state="M"/>
    <connection from="R3_J5_J3" to="R6_J3_J4" fromLane="0" toLane="0" via=":J3_8_0" tl="J3" linkIndex="8" dir="r" state="O"/>
    <connection from="R3_J5_J3" to="R1_J3_J1" fromLane="0" toLane="0" via=":J3_9_0" tl="J3" linkIndex="9" dir="s" state="O"/>
    <connection from="R3_J5_J3" to="R5_J3_J7" fromLane="0" toLane="0" via=":J3_10_0" tl="J3" linkIndex="10" dir="l" state="o"/>
    <connection from="R3_J5_J3" to="R3_J3_J5" fromLane="0" toLane="0" via=":J3_11_0" tl="J3" linkIndex="11" dir="t" state="o"/>
    <connection from="R4_J4_J6" to="R4_J6_J4" fromLane="0" toLane="0" via=":J6_0_0" dir="t" state="M"/>
    <connection from="R4_J6_J4" to="R7_J4_J8" fromLane="0" toLane="0" via=":J4_8_0" tl="J4" linkIndex="8" dir="r" state="O"/>
    <connection from="R4_J6_J4" to="R2_J4_J2" fromLane="0" toLane="0" via=":J4_9_0" tl="J4" linkIndex="9" dir="s" state="O"/>
    <connection from="R4_J6_J4" to="R6_J4_J3" fromLane="0" toLane="0" via=":J4_10_0" tl="J4" linkIndex="10" dir="l" state="o"/>
    <connection from="R4_J6_J4" to="R4_J4_J6" fromLane="0" toLane="0" via=":J4_11_0" tl="J4" linkIndex="11" dir="t" state="o"/>
    <connection from="R5_J3_J7" to="R5_J7_J3" fromLane="0" toLane="0" via=":J7_0_0" dir="t" state="M"/>
    <connection from="R5_J7_J3" to="R3_J3_J5" fromLane="0" toLane="0" via=":J3_12_0" tl="J3" linkIndex="12" dir="r" state="o"/>
    <connection from="R5_J7_J3" to="R6_J3_J4" fromLane="0" toLane="0" via=":J3_13_0" tl="J3" linkIndex="13" dir="s" state="o"/>
    <connection from="R5_J7_J3" to="R1_J3_J1" fromLane="0" toLane="0" via=":J3_14_0" tl="J3" linkIndex="14" dir="l" state="o"/>
    <connection from="R5_J7_J3" to="R5_J3_J7" fromLane="0" toLane="0" via=":J3_15_0" tl="J3" linkIndex="15" dir="t" state="o"/>
    <connection from="R6_J3_J4" to="R4_J4_J6" fromLane="0" toLane="0" via=":J4_12_0" tl="J4" linkIndex="12" dir="r" state="o"/>
    <connection from="R6_J3_J4" to="R7_J4_J8" fromLane="0" toLane="0" via=":J4_13_0" tl="J4" linkIndex="13" dir="s" state="o"/>
    <connection from="R6_J3_J4" to="R2_J4_J2" fromLane="0" toLane="0" via=":J4_14_0" tl="J4" linkIndex="14" dir="l" state="o"/>
    <connection from="R6_J3_J4" to="R6_J4_J3" fromLane="0" toLane="0" via=":J4_15_0" tl="J4" linkIndex="15" dir="t" state="o"/>
    <connection from="R6_J4_J3" to="R1_J3_J1" fromLane="0" toLane="0" via=":J3_4_0" tl="J3" linkIndex="4" dir="r" state="o"/>
    <connection from="R6_J4_J3" to="R5_J3_J7" fromLane="0" toLane="0" via=":J3_5_0" tl="J3" linkIndex="5" dir="s" state="o"/>
    <connection from="R6_J4_J3" to="R3_J3_J5" fromLane="0" toLane="0" via=":J3_6_0" tl="J3" linkIndex="6" dir="l" state="o"/>
    <connection from="R6_J4_J3" to="R6_J3_J4" fromLane="0" toLane="0" via=":J3_7_0" tl="J3" linkIndex="7" dir="t" state="o"/>
    <connection from="R7_J4_J8" to="R7_J8_J4" fromLane="0" toLane="0" via=":J8_0_0" dir="t" state="M"/>
    <connection from="R7_J8_J4" to="R2_J4_J2" fromLane="0" toLane="0" via=":J4_4_0" tl="J4" linkIndex="4" dir="r" state="o"/>
    <connection from="R7_J8_J4" to="R6_J4_J3" fromLane="0" toLane="0" via=":J4_5_0" tl="J4" linkIndex="5" dir="s" state="o"/>
    <connection from="R7_J8_J4" to="R4_J4_J6" fromLane="0" toLane="0" via=":J4_6_0" tl="J4" linkIndex="6" dir="l" state="o"/>
    <connection from="R7_J8_J4" to="R7_J4_J8" fromLane="0" toLane="0" via=":J4_7_0" tl="J4" linkIndex="7" dir="t" state="o"/>

    <connection from=":J0_0" to="R0_J0_J1" fromLane="0" toLane="0" dir="t" state="M"/>
    <connection from=":J1_0" to="R0_J1_J0" fromLane="0" toLane="0" dir="l" state="M"/>
    <connection from=":J1_1" to="R1_J1_J3" fromLane="0" toLane="0" dir="r" state="M"/>
    <connection from=":J2_0" to="R2_J2_J4" fromLane="0" toLane="0" dir="t" state="M"/>
    <connection from=":J3_0" to="R5_J3_J7" fromLane="0" toLane="0" dir="r" state="M"/>
    <connection from=":J3_1" to="R3_J3_J5" fromLane="0" toLane="0" dir="s" state="M"/>
    <connection from=":J3_2" to="R6_J3_J4" fromLane="0" toLane="0" via=":J3_16_0" dir="l" state="m"/>
    <connection from=":J3_16" to="R6_J3_J4" fromLane="0" toLane="0" dir="l" state="M"/>
    <connection from=":J3_3" to="R1_J3_J1" fromLane="0" toLane="0" via=":J3_17_0" dir="t" state="m"/>
    <connection from=":J3_17" to="R1_J3_J1" fromLane="0" toLane="0" dir="t" state="M"/>
    <connection from=":J3_4" to="R1_J3_J1" fromLane="0" toLane="0" dir="r" state="M"/>
    <connection from=":J3_5" to="R5_J3_J7" fromLane="0" toLane="0" dir="s" state="M"/>
    <connection from=":J3_6" to="R3_J3_J5" fromLane="0" toLane="0" via=":J3_18_0" dir="l" state="m"/>
    <connection from=":J3_18" to="R3_J3_J5" fromLane="0" toLane="0" dir="l" state="M"/>
    <connection from=":J3_7" to="R6_J3_J4" fromLane="0" toLane="0" via=":J3_19_0" dir="t" state="m"/>
    <connection from=":J3_19" to="R6_J3_J4" fromLane="0" toLane="0" dir="t" state="M"/>