<nodes>
    <node id="J0" x="63.12" y="429.83" type="priority"/>
    <node id="J1" x="282.5" y="429.83" type="traffic_light"/>
    <node id="J2" x="542.5" y="445.0" type="priority"/>
    <node id="J3" x="282.5" y="120.0" type="traffic_light"/>
    <node id="J4" x="542.5" y="120.0" type="traffic_light"/>
    <node id="J5" x="282.5" y="55.0" type="priority"/>
    <node id="J6" x="542.5" y="55.0" type="priority"/>
    <node id="J7" x="55.0" y="120.0" type="priority"/>
    <node id="J8" x="705.0" y="120.0" type="priority"/>
</nodes>