<?xml version="1.0" encoding="UTF-8"?>

<!-- generated on 2026-04-12T18:09:58.376542+05:30 by Eclipse SUMO netconvert 1.26.0
<netconvertConfiguration xmlns:xsi="http://www.w3.org/2001/XMLSchema-instance" xsi:noNamespaceSchemaLocation="http://sumo.dlr.de/xsd/netconvertConfiguration.xsd">

    <input>
        <node-files value="C:\Users\santhosh\OneDrive\Desktop\trafiic pro\web_runs\20260412_180957_503842\area.nod.xml"/>
        <edge-files value="C:\Users\santhosh\OneDrive\Desktop\trafiic pro\web_runs\20260412_180957_503842\area.edg.xml"/>
    </input>

    <output>
        <output-file value="C:\Users\santhosh\OneDrive\Desktop\trafiic pro\web_runs\20260412_180957_503842\area.net.xml"/>
    </output>

    <building_defaults>
        <default.lanewidth value="1.5"/>
    </building_defaults>

    <junctions>
        <junctions.corner-detail value="0"/>
    </junctions>

</netconvertConfiguration>
-->

<net version="1.20" limitTurnSpeed="5.50" xmlns:xsi="http://www.w3.org/2001/XMLSchema-instance" xsi:noNamespaceSchemaLocation="http://sumo.dlr.de/xsd/net_file.xsd">

    <location netOffset="-50.00,-50.00" convBoundary="0.00,0.00,600.00,360.00" origBoundary="50.00,50.00,650.00,410.00" projParameter="!"/>

    <edge id=":P0_0" function="internal">
        <lane id=":P0_0_0" index="0" speed="13.90" length="11.00" width="1.50" shape="-0.75,245.50 -0.75,234.50"/>
    </edge>
    <edge id=":P0_1" function="internal">
        <lane id=":P0_1_0" index="0" speed="6.66" length="4.71" width="1.50" shape="-0.75,245.50 -0.36,242.77 0.64,241.09"/>
    </edge>
    <edge id=":P0_2" function="internal">
        <lane id=":P0_2_0" index="0" speed="2.50" length="1.87" width="1.50" shape="-0.75,245.50 -0.38,244.94 0.00,244.75 0.38,244.94 0.57,245.23"/>
    </edge>
    <edge id=":P0_9" function="internal">
        <lane id=":P0_9_0" index="0" speed="6.66" length="5.37" width="1.50" shape="0.64,241.09 0.81,240.81 2.77,239.64 5.50,239.25"/>
    </edge>
    <edge id=":P0_10" function="internal">
        <lane id=":P0_10_0" index="0" speed="2.50" length="0.32" width="1.50" shape="0.57,245.23 0.75,245.50"/>
    </edge>
    <edge id=":P0_3" function="internal">
        <lane id=":P0_3_0" index="0" speed="5.85" length="7.66" width="1.50" shape="5.50,240.75 3.42,241.05 1.94,241.94 1.05,243.42 0.75,245.50"/>
    </edge>
    <edge id=":P0_4" function="internal">
        <lane id=":P0_4_0" index="0" speed="6.66" length="10.08" width="1.50" shape="5.50,240.75 2.77,240.36 0.81,239.19 -0.36,237.23 -0.75,234.50"/>
    </edge>
    <edge id=":P0_5" function="internal">
        <lane id=":P0_5_0" index="0" speed="2.50" length="1.10" width="1.50" shape="5.50,240.75 4.94,240.38 4.75,240.00"/>
    </edge>
    <edge id=":P0_11" function="internal">
        <lane id=":P0_11_0" index="0" speed="2.50" length="1.10" width="1.50" shape="4.75,240.00 4.94,239.62 5.50,239.25"/>
    </edge>
    <edge id=":P0_6" function="internal">
        <lane id=":P0_6_0" index="0" speed="5.85" length="7.66" width="1.50" shape="0.75,234.50 1.05,236.58 1.94,238.06 3.42,238.95 5.50,239.25"/>
    </edge>
    <edge id=":P0_7" function="internal">
        <lane id=":P0_7_0" index="0" speed="13.90" length="11.00" width="1.50" shape="0.75,234.50 0.75,245.50"/>
    </edge>
    <edge id=":P0_8" function="internal">
        <lane id=":P0_8_0" index="0" speed="2.50" length="1.87" width="1.50" shape="0.75,234.50 0.38,235.06 0.00,235.25 -0.38,235.06 -0.57,234.77"/>
    </edge>
    <edge id=":P0_12" function="internal">
        <lane id=":P0_12_0" index="0" speed="2.50" length="0.32" width="1.50" shape="-0.57,234.77 -0.75,234.50"/>
    </edge>
    <edge id=":P1_0" function="internal">
        <lane id=":P1_0_0" index="0" speed="13.90" length="11.00" width="1.50" shape="-0.75,125.50 -0.75,114.50"/>
    </edge>
    <edge id=":P1_1" function="internal">
        <lane id=":P1_1_0" index="0" speed="6.66" length="4.71" width="1.50" shape="-0.75,125.50 -0.36,122.77 0.64,121.09"/>
    </edge>
    <edge id=":P1_2" function="internal">
        <lane id=":P1_2_0" index="0" speed="2.50" length="1.87" width="1.50" shape="-0.75,125.50 -0.38,124.94 0.00,124.75 0.38,124.94 0.57,125.23"/>
    </edge>
    <edge id=":P1_9" function="internal">
        <lane id=":P1_9_0" index="0" speed="6.66" length="5.37" width="1.50" shape="0.64,121.09 0.81,120.81 2.77,119.64 5.50,119.25"/>
    </edge>
    <edge id=":P1_10" function="internal">
        <lane id=":P1_10_0" index="0" speed="2.50" length="0.32" width="1.50" shape="0.57,125.23 0.75,125.50"/>
    </edge>
    <edge id=":P1_3" function="internal">
        <lane id=":P1_3_0" index="0" speed="5.85" length="7.66" width="1.50" shape="5.50,120.75 3.42,121.05 1.94,121.94 1.05,123.42 0.75,125.50"/>
    </edge>
    <edge id=":P1_4" function="internal">
        <lane id=":P1_4_0" index="0" speed="6.66" length="10.08" width="1.50" shape="5.50,120.75 2.77,120.36 0.81,119.19 -0.36,117.23 -0.75,114.50"/>
    </edge>
    <edge id=":P1_5" function="internal">
        <lane id=":P1_5_0" index="0" speed="2.50" length="1.10" width="1.50" shape="5.50,120.75 4.94,120.38 4.75,120.00"/>
    </edge>
    <edge id=":P1_11" function="internal">
        <lane id=":P1_11_0" index="0" speed="2.50" length="1.10" width="1.50" shape="4.75,120.00 4.94,119.62 5.50,119.25"/>
    </edge>
    <edge id=":P1_6" function="internal">
        <lane id=":P1_6_0" index="0" speed="5.85" length="7.66" width="1.50" shape="0.75,114.50 1.05,116.58 1.94,118.06 3.42,118.95 5.50,119.25"/>
    </edge>
    <edge id=":P1_7" function="internal">
        <lane id=":P1_7_0" index="0" speed="13.90" length="11.00" width="1.50" shape="0.75,114.50 0.75,125.50"/>
    </edge>
    <edge id=":P1_8" function="internal">
        <lane id=":P1_8_0" index="0" speed="2.50" length="1.87" width="1.50" shape="0.75,114.50 0.38,115.06 0.00,115.25 -0.38,115.06 -0.57,114.77"/>
    </edge>
    <edge id=":P1_12" function="internal">
        <lane id=":P1_12_0" index="0" speed="2.50" length="0.32" width="1.50" shape="-0.57,114.77 -0.75,114.50"/>
    </edge>
    <edge id=":P2_0" function="internal">
        <lane id=":P2_0_0" index="0" speed="2.50" length="2.19" width="1.50" shape="600.00,239.25 600.56,239.62 600.75,240.00 600.56,240.38 600.00,240.75"/>
    </edge>
    <edge id=":P3_0" function="internal">
        <lane id=":P3_0_0" index="0" speed="2.50" length="2.19" width="1.50" shape="600.00,119.25 600.56,119.62 600.75,120.00 600.56,120.38 600.00,120.75"/>
    </edge>
    <edge id=":P4_0" function="internal">
        <lane id=":P4_0_0" index="0" speed="2.50" length="2.19" width="1.50" shape="0.75,360.00 0.38,360.56 0.00,360.75 -0.38,360.56 -0.75,360.00"/>
    </edge>
    <edge id=":P5_0" function="internal">
        <lane id=":P5_0_0" index="0" speed="2.50" length="2.19" width="1.50" shape="-0.75,0.00 -0.38,-0.56 0.00,-0.75 0.38,-0.56 0.75,0.00"/>
    </edge>

    <edge id="E0_P0_P2" from="P0" to="P2" priority="-1">
        <lane id="E0_P0_P2_0" index="0" speed="13.90" length="594.50" width="1.50" shape="5.50,239.25 600.00,239.25"/>
    </edge>
    <edge id="E0_P2_P0" from="P2" to="P0" priority="-1">
        <lane id="E0_P2_P0_0" index="0" speed="13.90" length="594.50" width="1.50" shape="600.00,240.75 5.50,240.75"/>
    </edge>
    <edge id="E1_P1_P3" from="P1" to="P3" priority="-1">
        <lane id="E1_P1_P3_0" index="0" speed="13.90" length="594.50" width="1.50" shape="5.50,119.25 600.00,119.25"/>
    </edge>
    <edge id="E1_P3_P1" from="P3" to="P1" priority="-1">
        <lane id="E1_P3_P1_0" index="0" speed="13.90" length="594.50" width="1.50" shape="600.00,120.75 5.50,120.75"/>
    </edge>
    <edge id="E2_P0_P4" from="P0" to="P4" priority="-1">
        <lane id="E2_P0_P4_0" index="0" speed="13.90" length="114.50" width="1.50" shape="0.75,245.50 0.75,360.00"/>
    </edge>
    <edge id="E2_P4_P0" from="P4" to="P0" priority="-1">
        <lane id="E2_P4_P0_0" index="0" speed="13.90" length="114.50" width="1.50" shape="-0.75,360.00 -0.75,245.50"/>
    </edge>
    <edge id="E3_P0_P1" from="P0" to="P1" priority="-1">
        <lane id="E3_P0_P1_0" index="0" speed="13.90" length="109.00" width="1.50" shape="-0.75,234.50 -0.75,125.50"/>
    </edge>
    <edge id="E3_P1_P0" from="P1" to="P0" priority="-1">
        <lane id="E3_P1_P0_0" index="0" speed="13.90" length="109.00" width="1.50" shape="0.75,125.50 0.75,234.50"/>
    </edge>
    <edge id="E4_P1_P5" from="P1" to="P5" priority="-1">
        <lane id="E4_P1_P5_0" index="0" speed="13.90" length="114.50" width="1.50" shape="-0.75,114.50 -0.75,0.00"/>
    </edge>
    <edge id="E4_P5_P1" from="P5" to="P1" priority="-1">
        <lane id="E4_P5_P1_0" index="0" speed="13.90" length="114.50" width="1.50" shape="0.75,0.00 0.75,114.50"/>
    </edge>

    <tlLogic id="P0" type="static" programID="0" offset="0">
        <phase duration="42" state="GggrrrGGg"/>
        <phase duration="3"  state="yyyrrrGyy"/>
        <phase duration="42" state="rrrGGgGrr"/>
        <phase duration="3"  state="rrryyyGrr"/>
    </tlLogic>
    <tlLogic id="P1" type="static" programID="0" offset="0">
        <phase duration="42" state="GggrrrGGg"/>
        <phase duration="3"  state="yyyrrrGyy"/>
        <phase duration="42" state="rrrGGgGrr"/>
        <phase duration="3"  state="rrryyyGrr"/>
    </tlLogic>

    <junction id="P0" type="traffic_light" x="0.00" y="240.00" incLanes="E2_P4_P0_0 E0_P2_P0_0 E3_P1_P0_0" intLanes=":P0_0_0 :P0_9_0 :P0_10_0 :P0_3_0 :P0_4_0 :P0_11_0 :P0_6_0 :P0_7_0 :P0_12_0" shape="-1.50,245.50 1.50,245.50 5.50,241.50 5.50,238.50 1.50,234.50 -1.50,234.50">
        <request index="0" response="000000000" foes="100010000" cont="0"/>
        <request index="1" response="011000000" foes="011110000" cont="1"/>
        <request index="2" response="010001000" foes="010001000" cont="1"/>
        <request index="3" response="010000000" foes="010000100" cont="0"/>
        <request index="4" response="010000011" foes="110000011" cont="0"/>
        <request index="5" response="001000010" foes="001000010" cont="1"/>
        <request index="6" response="000000000" foes="000100010" cont="0"/>
        <request index="7" response="000000000" foes="000011110" cont="0"/>
        <request index="8" response="000010001" foes="000010001" cont="1"/>
    </junction>
    <junction id="P1" type="traffic_light" x="0.00" y="120.00" incLanes="E3_P0_P1_0 E1_P3_P1_0 E4_P5_P1_0" intLanes=":P1_0_0 :P1_9_0 :P1_10_0 :P1_3_0 :P1_4_0 :P1_11_0 :P1_6_0 :P1_7_0 :P1_12_0" shape="-1.50,125.50 1.50,125.50 5.50,121.50 5.50,118.50 1.50,114.50 -1.50,114.50">
        <request index="0" response="000000000" foes="100010000" cont="0"/>
        <request index="1" response="011000000" foes="011110000" cont="1"/>
        <request index="2" response="010001000" foes="010001000" cont="1"/>
        <request index="3" response="010000000" foes="010000100" cont="0"/>
        <request index="4" response="010000011" foes="110000011" cont="0"/>
        <request index="5" response="001000010" foes="001000010" cont="1"/>
        <request index="6" response="000000000" foes="000100010" cont="0"/>
        <request index="7" response="000000000" foes="000011110" cont="0"/>
        <request index="8" response="000010001" foes="000010001" cont="1"/>
    </junction>
    <junction id="P2" type="priority" x="600.00" y="240.00" incLanes="E0_P0_P2_0" intLanes=":P2_0_0" shape="600.00,240.00 600.00,238.50 600.00,240.00">
        <request index="0" response="0" foes="0" cont="0"/>
    </junction>
    <junction id="P3" type="priority" x="600.00" y="120.00" incLanes="E1_P1_P3_0" intLanes=":P3_0_0" shape="600.00,120.00 600.00,118.50 600.00,120.00">
        <request index="0" response="0" foes="0" cont="0"/>
    </junction>
    <junction id="P4" type="priority" x="0.00" y="360.00" incLanes="E2_P0_P4_0" intLanes=":P4_0_0" shape="0.00,360.00 1.50,360.00 0.00,360.00">
        <request index="0" response="0" foes="0" cont="0"/>
    </junction>
    <junction id="P5" type="priority" x="0.00" y="0.00" incLanes="E4_P1_P5_0" intLanes=":P5_0_0" shape="0.00,0.00 -1.50,0.00 0.00,0.00">
        <request index="0" response="0" foes="0" cont="0"/>
    </junction>

    <junction id=":P0_9_0" type="internal" x="0.64" y="241.09" incLanes=":P0_1_0 E3_P1_P0_0" intLanes=":P0_4_0 :P0_5_0 :P0_6_0 :P0_7_0"/>
    <junction id=":P0_10_0" type="internal" x="0.57" y="245.23" incLanes=":P0_2_0 E0_P2_P0_0 E3_P1_P0_0" intLanes=":P0_3_0 :P0_7_0"/>
    <junction id=":P0_11_0" type="internal" x="4.75" y="240.00" incLanes=":P0_5_0 E2_P4_P0_0 E3_P1_P0_0" intLanes=":P0_1_0 :P0_6_0"/>
    <junction id=":P0_12_0" type="internal" x="-0.57" y="234.77" incLanes=":P0_8_0 E0_P2_P0_0 E2_P4_P0_0" intLanes=":P0_0_0 :P0_4_0"/>
    <junction id=":P1_9_0" type="internal" x="0.64" y="121.09" incLanes=":P1_1_0 E4_P5_P1_0" intLanes=":P1_4_0 :P1_5_0 :P1_6_0 :P1_7_0"/>
    <junction id=":P1_10_0" type="internal" x="0.57" y="125.23" incLanes=":P1_2_0 E1_P3_P1_0 E4_P5_P1_0" intLanes=":P1_3_0 :P1_7_0"/>
    <junction id=":P1_11_0" type="internal" x="4.75" y="120.00" incLanes=":P1_5_0 E3_P0_P1_0 E4_P5_P1_0" intLanes=":P1_1_0 :P1_6_0"/>
    <junction id=":P1_12_0" type="internal" x="-0.57" y="114.77" incLanes=":P1_8_0 E1_P3_P1_0 E3_P0_P1_0" intLanes=":P1_0_0 :P1_4_0"/>

    <connection from="E0_P0_P2" to="E0_P2_P0" fromLane="0" toLane="0" via=":P2_0_0" dir="t" state="M"/>
    <connection from="E0_P2_P0" to="E2_P0_P4" fromLane="0" toLane="0" via=":P0_3_0" tl="P0" linkIndex="3" dir="r" state="o"/>
    <connection from="E0_P2_P0" to="E3_P0_P1" fromLane="0" toLane="0" via=":P0_4_0" tl="P0" linkIndex="4" dir="l" state="o"/>
    <connection from="E0_P2_P0" to="E0_P0_P2" fromLane="0" toLane="0" via=":P0_5_0" tl="P0" linkIndex="5" dir="t" state="o"/>
    <connection from="E1_P1_P3" to="E1_P3_P1" fromLane="0" toLane="0" via=":P3_0_0" dir="t" state="M"/>
    <connection from="E1_P3_P1" to="E3_P1_P0" fromLane="0" toLane="0" via=":P1_3_0" tl="P1" linkIndex="3" dir="r" state="o"/>
    <connection from="E1_P3_P1" to="E4_P1_P5" fromLane="0" toLane="0" via=":P1_4_0" tl="P1" linkIndex="4" dir="l" state="o"/>
    <connection from="E1_P3_P1" to="E1_P1_P3" fromLane="0" toLane="0" via=":P1_5_0" tl="P1" linkIndex="5" dir="t" state="o"/>
    <connection from="E2_P0_P4" to="E2_P4_P0" fromLane="0" toLane="0" via=":P4_0_0" dir="t" state="M"/>
    <connection from="E2_P4_P0" to="E3_P0_P1" fromLane="0" toLane="0" via=":P0_0_0" tl="P0" linkIndex="0" dir="s" state="O"/>
    <connection from="E2_P4_P0" to="E0_P0_P2" fromLane="0" toLane="0" via=":P0_1_0" tl="P0" linkIndex="1" dir="l" state="o"/>
    <connection from="E2_P4_P0" to="E2_P0_P4" fromLane="0" toLane="0" via=":P0_2_0" tl="P0" linkIndex="2" dir="t" state="o"/>
    <connection from="E3_P0_P1" to="E4_P1_P5" fromLane="0" toLane="0" via=":P1_0_0" tl="P1" linkIndex="0" dir="s" state="O"/>
    <connection from="E3_P0_P1" to="E1_P1_P3" fromLane="0" toLane="0" via=":P1_1_0" tl="P1" linkIndex="1" dir="l" state="o"/>
    <connection from="E3_P0_P1" to="E3_P1_P0" fromLane="0" toLane="0" via=":P1_2_0" tl="P1" linkIndex="2" dir="t" state="o"/>
    <connection from="E3_P1_P0" to="E0_P0_P2" fromLane="0" toLane="0" via=":P0_6_0" tl="P0" linkIndex="6" dir="r" state="O"/>
    <connection from="E3_P1_P0" to="E2_P0_P4" fromLane="0" toLane="0" via=":P0_7_0" tl="P0" linkIndex="7" dir="s" state="O"/>
    <connection from="E3_P1_P0" to="E3_P0_P1" fromLane="0" toLane="0" via=":P0_8_0" tl="P0" linkIndex="8" dir="t" state="o"/>
    <connection from="E4_P1_P5" to="E4_P5_P1" fromLane="0" toLane="0" via=":P5_0_0" dir="t" state="M"/>
    <connection from="E4_P5_P1" to="E1_P1_P3" fromLane="0" toLane="0" via=":P1_6_0" tl="P1" linkIndex="6" dir="r" state="O"/>
    <connection from="E4_P5_P1" to="E3_P1_P0" fromLane="0" toLane="0" via=":P1_7_0" tl="P1" linkIndex="7" dir="s" state="O"/>
    <connection from="E4_P5_P1" to="E4_P1_P5" fromLane="0" toLane="0" via=":P1_8_0" tl="P1" linkIndex="8" dir="t" state="o"/>

    <connection from=":P0_0" to="E3_P0_P1" fromLane="0" toLane="0" dir="s" state="M"/>
    <connection from=":P0_1" to="E0_P0_P2" fromLane="0" toLane="0" via=":P0_9_0" dir="l" state="m"/>
    <connection from=":P0_9" to="E0_P0_P2" fromLane="0" toLane="0" dir="l" state="M"/>
    <connection from=":P0_2" to="E2_P0_P4" fromLane="0" toLane="0" via=":P0_10_0" dir="t" state="m"/>
    <connection from=":P0_10" to="E2_P0_P4" fromLane="0" toLane="0" dir="t" state="M"/>
    <connection from=":P0_3" to="E2_P0_P4" fromLane="0" toLane="0" dir="r" state="M"/>
    <connection from=":P0_4" to="E3_P0_P1" fromLane="0" toLane="0" dir="l" state="M"/>
    <connection from=":P0_5" to="E0_P0_P2" fromLane="0" toLane="0" via=":P0_11_0" dir="t" state="m"/>
    <connection from=":P0_11" to="E0_P0_P2" fromLane="0" toLane="0" dir="t" state="M"/>
    <connection from=":P0_6" to="E0_P0_P2" fromLane="0" toLane="0" dir="r" state="M"/>
    <connection from=":P0_7" to="E2_P0_P4" fromLane="0" toLane="0" dir="s" state="M"/>
    <connection from=":P0_8" to="E3_P0_P1" fromLane="0" toLane="0" via=":P0_12_0" dir="t" state="m"/>
    <connection from=":P0_12" to="E3_P0_P1" fromLane="0" toLane="0" dir="t" state="M"/>
    <connection from=":P1_0" to="E4_P1_P5" fromLane="0" toLane="0" dir="s" state="M"/>
    <connection from=":P1_1" to="E1_P1_P3" fromLane="0" toLane="0" via=":P1_9_0" dir="l" state="m"/>
    <connection from=":P1_9" to="E1_P1_P3" fromLane="0" toLane="0" dir="l" state="M"/>
    <connection from=":P1_2" to="E3_P1_P0" fromLane="0" toLane="0" via=":P1_10_0" dir="t" state="m"/>
    <connection from=":P1_10" to="E3_P1_P0" fromLane="0" toLane="0" dir="t" state="M"/>
    <connection from=":P1_3" to="E3_P1_P0" fromLane="0" toLane="0" dir="r" state="M"/>
    <connection from=":P1_4" to="E4_P1_P5" fromLane="0" toLane="0" dir="l" state="M"/>
    <connection from=":P1_5" to="E1_P1_P3" fromLane="0" toLane="0" via=":P1_11_0" dir="t" state="m"/>
    <connection from=":P1_11" to="E1_P1_P3" fromLane="0" toLane="0" dir="t" state="M"/>
    <connection from=":P1_6" to="E1_P1_P3" fromLane="0" toLane="0" dir="r" state="M"/>
    <connection from=":P1_7" to="E3_P1_P0" fromLane="0" toLane="0" dir="s" state="M"/>
    <connection from=":P1_8" to="E4_P1_P5" fromLane="0" toLane="0" via=":P1_12_0" dir="t" state="m"/>
    <connection from=":P1_12" to="E4_P1_P5" fromLane="0" toLane="0" dir="t" state="M"/>
    <connection from=":P2_0" to="E0_P2_P0" fromLane="0" toLane="0" dir="t" state="M"/>
    <connection from=":P3_0" to="E1_P3_P1" fromLane="0" toLane="0" dir="t" state="M"/>
    <connection from=":P4_0" to="E2_P4_P0" fromLane="0" toLane="0" dir="t" state="M"/>
    <connection from=":P5_0" to="E4_P5_P1" fromLane="0" toLane="0" dir="t" state="M"/>

</net>
