<?xml version="1.0" encoding="UTF-8"?>

<!-- generated on 2026-04-11T22:02:30.759578+05:30 by Eclipse SUMO netconvert 1.26.0
<netconvertConfiguration xmlns:xsi="http://www.w3.org/2001/XMLSchema-instance" xsi:noNamespaceSchemaLocation="http://sumo.dlr.de/xsd/netconvertConfiguration.xsd">

    <input>
        <node-files value="C:\Users\santhosh\OneDrive\Desktop\trafiic pro\web_runs\20260411_220230_622303\area.nod.xml"/>
        <edge-files value="C:\Users\santhosh\OneDrive\Desktop\trafiic pro\web_runs\20260411_220230_622303\area.edg.xml"/>
    </input>

    <output>
        <output-file value="C:\Users\santhosh\OneDrive\Desktop\trafiic pro\web_runs\20260411_220230_622303\area.net.xml"/>
    </output>

    <building_defaults>
        <default.lanewidth value="1.8"/>
    </building_defaults>

    <junctions>
        <junctions.corner-detail value="0"/>
    </junctions>

</netconvertConfiguration>
-->

<net version="1.20" limitTurnSpeed="5.50" xmlns:xsi="http://www.w3.org/2001/XMLSchema-instance" xsi:noNamespaceSchemaLocation="http://sumo.dlr.de/xsd/net_file.xsd">

    <location netOffset="0.00,0.00" convBoundary="0.00,0.00,2240.00,1760.00" origBoundary="0.00,0.00,2240.00,1760.00" projParameter="!"/>

    <edge id=":E0_0" function="internal">
        <lane id=":E0_0_0" index="0" speed="2.74" length="2.63" width="1.80" shape="2240.00,879.10 2240.67,879.55 2240.90,880.00 2240.68,880.45 2240.00,880.90"/>
    </edge>
    <edge id=":J0_0_0" function="internal">
        <lane id=":J0_0_0_0" index="0" speed="6.00" length="7.93" width="1.80" shape="1074.09,888.06 1073.77,885.91 1072.85,884.37 1071.31,883.45 1069.16,883.14"/>
    </edge>
    <edge id=":J0_0_1" function="internal">
        <lane id=":J0_0_1_0" index="0" speed="13.90" length="11.63" width="1.80" shape="1074.09,888.06 1074.09,876.43"/>
    </edge>
    <edge id=":J0_0_2" function="internal">
        <lane id=":J0_0_2_0" index="0" speed="6.91" length="5.27" width="1.80" shape="1074.09,888.06 1074.50,885.12 1075.67,883.14"/>
    </edge>
    <edge id=":J0_0_3" function="internal">
        <lane id=":J0_0_3_0" index="0" speed="2.74" length="2.25" width="1.80" shape="1074.09,888.06 1074.54,887.38 1074.99,887.16 1075.44,887.38 1075.68,887.74"/>
    </edge>
    <edge id=":J0_0_16" function="internal">
        <lane id=":J0_0_16_0" index="0" speed="6.91" length="5.55" width="1.80" shape="1075.67,883.14 1075.74,883.03 1077.84,881.76 1080.77,881.34"/>
    </edge>
    <edge id=":J0_0_17" function="internal">
        <lane id=":J0_0_17_0" index="0" speed="2.74" length="0.37" width="1.80" shape="1075.68,887.74 1075.89,888.05"/>
    </edge>
    <edge id=":J0_0_4" function="internal">
        <lane id=":J0_0_4_0" index="0" speed="5.97" length="7.91" width="1.80" shape="1080.77,883.14 1078.63,883.45 1077.10,884.37 1076.19,885.91 1075.89,888.05"/>
    </edge>
    <edge id=":J0_0_5" function="internal">
        <lane id=":J0_0_5_0" index="0" speed="13.90" length="11.61" width="1.80" shape="1080.77,883.14 1069.16,883.14"/>
    </edge>
    <edge id=":J0_0_6" function="internal">
        <lane id=":J0_0_6_0" index="0" speed="6.90" length="5.25" width="1.80" shape="1080.77,883.14 1077.84,882.72 1075.88,881.55"/>
    </edge>
    <edge id=":J0_0_7" function="internal">
        <lane id=":J0_0_7_0" index="0" speed="2.74" length="2.25" width="1.80" shape="1080.77,883.14 1080.10,882.69 1079.87,882.24 1080.10,881.79 1080.45,881.55"/>
    </edge>
    <edge id=":J0_0_18" function="internal">
        <lane id=":J0_0_18_0" index="0" speed="6.90" length="5.56" width="1.80" shape="1075.88,881.55 1075.74,881.47 1074.50,879.37 1074.09,876.43"/>
    </edge>
    <edge id=":J0_0_19" function="internal">
        <lane id=":J0_0_19_0" index="0" speed="2.74" length="0.38" width="1.80" shape="1080.45,881.55 1080.77,881.34"/>
    </edge>
    <edge id=":J0_0_8" function="internal">
        <lane id=":J0_0_8_0" index="0" speed="5.96" length="7.90" width="1.80" shape="1075.89,876.44 1076.19,878.59 1077.10,880.12 1078.63,881.04 1080.77,881.34"/>
    </edge>
    <edge id=":J0_0_9" function="internal">
        <lane id=":J0_0_9_0" index="0" speed="13.90" length="11.61" width="1.80" shape="1075.89,876.44 1075.89,888.05"/>
    </edge>
    <edge id=":J0_0_10" function="internal">
        <lane id=":J0_0_10_0" index="0" speed="6.93" length="5.23" width="1.80" shape="1075.89,876.44 1075.46,879.38 1074.29,881.31"/>
    </edge>
    <edge id=":J0_0_11" function="internal">
        <lane id=":J0_0_11_0" index="0" speed="2.74" length="2.23" width="1.80" shape="1075.89,876.44 1075.44,877.11 1074.99,877.34 1074.54,877.11 1074.31,876.76"/>
    </edge>
    <edge id=":J0_0_20" function="internal">
        <lane id=":J0_0_20_0" index="0" speed="6.93" length="5.59" width="1.80" shape="1074.29,881.31 1074.19,881.47 1072.09,882.72 1069.16,883.14"/>
    </edge>
    <edge id=":J0_0_21" function="internal">
        <lane id=":J0_0_21_0" index="0" speed="2.74" length="0.40" width="1.80" shape="1074.31,876.76 1074.09,876.43"/>
    </edge>
    <edge id=":J0_0_12" function="internal">
        <lane id=":J0_0_12_0" index="0" speed="5.99" length="7.92" width="1.80" shape="1069.17,881.34 1071.31,881.04 1072.85,880.12 1073.77,878.58 1074.09,876.43"/>
    </edge>
    <edge id=":J0_0_13" function="internal">
        <lane id=":J0_0_13_0" index="0" speed="13.90" length="11.60" width="1.80" shape="1069.17,881.34 1080.77,881.34"/>
    </edge>
    <edge id=":J0_0_14" function="internal">
        <lane id=":J0_0_14_0" index="0" speed="6.94" length="5.24" width="1.80" shape="1069.17,881.34 1072.10,881.76 1074.05,882.94"/>
    </edge>
    <edge id=":J0_0_15" function="internal">
        <lane id=":J0_0_15_0" index="0" speed="2.74" length="2.24" width="1.80" shape="1069.17,881.34 1069.84,881.79 1070.07,882.24 1069.84,882.69 1069.49,882.92"/>
    </edge>
    <edge id=":J0_0_22" function="internal">
        <lane id=":J0_0_22_0" index="0" speed="6.94" length="5.58" width="1.80" shape="1074.05,882.94 1074.19,883.02 1075.46,885.12 1075.89,888.05"/>
    </edge>
    <edge id=":J0_0_23" function="internal">
        <lane id=":J0_0_23_0" index="0" speed="2.74" length="0.39" width="1.80" shape="1069.49,882.92 1069.16,883.14"/>
    </edge>
    <edge id=":N0_0" function="internal">
        <lane id=":N0_0_0" index="0" speed="2.74" length="2.63" width="1.80" shape="1080.61,1760.00 1080.16,1760.67 1079.71,1760.90 1079.26,1760.68 1078.81,1760.00"/>
    </edge>
    <edge id=":S0_0" function="internal">
        <lane id=":S0_0_0" index="0" speed="2.74" length="2.63" width="1.80" shape="1078.81,-0.00 1079.26,-0.68 1079.71,-0.90 1080.16,-0.67 1080.61,0.00"/>
    </edge>
    <edge id=":W0_0" function="internal">
        <lane id=":W0_0_0" index="0" speed="2.74" length="2.63" width="1.80" shape="-0.00,880.90 -0.68,880.45 -0.90,880.00 -0.67,879.55 0.00,879.10"/>
    </edge>

    <edge id="E0_to_J0_0" from="E0" to="J0_0" priority="-1">
        <lane id="E0_to_J0_0_0" index="0" speed="13.90" length="1159.23" width="1.80" shape="2240.00,880.90 1080.77,883.14"/>
    </edge>
    <edge id="J0_0_to_E0" from="J0_0" to="E0" priority="-1">
        <lane id="J0_0_to_E0_0" index="0" speed="13.90" length="1159.23" width="1.80" shape="1080.77,881.34 2240.00,879.10"/>
    </edge>
    <edge id="J0_0_to_N0" from="J0_0" to="N0" priority="-1">
        <lane id="J0_0_to_N0_0" index="0" speed="13.90" length="871.96" width="1.80" shape="1075.89,888.05 1080.61,1760.00"/>
    </edge>
    <edge id="J0_0_to_S0" from="J0_0" to="S0" priority="-1">
        <lane id="J0_0_to_S0_0" index="0" speed="13.90" length="876.45" width="1.80" shape="1074.09,876.43 1078.81,-0.00"/>
    </edge>
    <edge id="J0_0_to_W0" from="J0_0" to="W0" priority="-1">
        <lane id="J0_0_to_W0_0" index="0" speed="13.90" length="1069.17" width="1.80" shape="1069.16,883.14 -0.00,880.90"/>
    </edge>
    <edge id="N0_to_J0_0" from="N0" to="J0_0" priority="-1">
        <lane id="N0_to_J0_0_0" index="0" speed="13.90" length="871.96" width="1.80" shape="1078.81,1760.00 1074.09,888.06"/>
    </edge>
    <edge id="S0_to_J0_0" from="S0" to="J0_0" priority="-1">
        <lane id="S0_to_J0_0_0" index="0" speed="13.90" length="876.45" width="1.80" shape="1080.61,0.00 1075.89,876.44"/>
    </edge>
    <edge id="W0_to_J0_0" from="W0" to="J0_0" priority="-1">
        <lane id="W0_to_J0_0_0" index="0" speed="13.90" length="1069.17" width="1.80" shape="0.00,879.10 1069.17,881.34"/>
    </edge>

    <tlLogic id="J0_0" type="static" programID="0" offset="0">
        <phase duration="42" state="rrrrGGggrrrrGGgg"/>
        <phase duration="3"  state="rrrryyyyrrrryyyy"/>
        <phase duration="42" state="GGggrrrrGGggrrrr"/>
        <phase duration="3"  state="yyyyrrrryyyyrrrr"/>
    </tlLogic>

    <junction id="E0" type="priority" x="2240.00" y="880.00" incLanes="J0_0_to_E0_0" intLanes=":E0_0_0" shape="2240.00,880.00 2240.00,878.20 2240.00,880.00">
        <request index="0" response="0" foes="0" cont="0"/>
    </junction>
    <junction id="J0_0" type="traffic_light" x="1074.96" y="882.25" incLanes="N0_to_J0_0_0 E0_to_J0_0_0 S0_to_J0_0_0 W0_to_J0_0_0" intLanes=":J0_0_0_0 :J0_0_1_0 :J0_0_16_0 :J0_0_17_0 :J0_0_4_0 :J0_0_5_0 :J0_0_18_0 :J0_0_19_0 :J0_0_8_0 :J0_0_9_0 :J0_0_20_0 :J0_0_21_0 :J0_0_12_0 :J0_0_13_0 :J0_0_22_0 :J0_0_23_0" shape="1073.19,888.07 1076.79,888.05 1080.78,884.04 1080.77,880.44 1076.79,876.45 1073.19,876.43 1069.17,880.44 1069.16,884.04">
        <request index="0"  response="0000000000100000" foes="1000010000100000" cont="0"/>
        <request index="1"  response="0111000001100000" foes="0111110001100000" cont="0"/>
        <request index="2"  response="0110001101100000" foes="0110001111100000" cont="1"/>
        <request index="3"  response="0100001000010000" foes="0100001000010000" cont="1"/>
        <request index="4"  response="0000000000000000" foes="0100001000001000" cont="0"/>
        <request index="5"  response="0000010000000100" foes="1100011000000111" cont="0"/>
        <request index="6"  response="0011010000000100" foes="0011111000000110" cont="1"/>
        <request index="7"  response="0010000100000100" foes="0010000100000100" cont="1"/>
        <request index="8"  response="0010000000000000" foes="0010000010000100" cont="0"/>
        <request index="9"  response="0110000001110000" foes="0110000001111100" cont="0"/>
        <request index="10" response="0110000001100011" foes="1110000001100011" cont="1"/>
        <request index="11" response="0001000001000010" foes="0001000001000010" cont="1"/>
        <request index="12" response="0000000000000000" foes="0000100001000010" cont="0"/>
        <request index="13" response="0000010000000100" foes="0000011111000110" cont="0"/>
        <request index="14" response="0000010000110100" foes="0000011000111110" cont="1"/>
        <request index="15" response="0000010000100001" foes="0000010000100001" cont="1"/>
    </junction>
    <junction id="N0" type="priority" x="1079.71" y="1760.00" incLanes="J0_0_to_N0_0" intLanes=":N0_0_0" shape="1079.71,1760.00 1081.51,1759.99 1079.71,1760.00">
        <request index="0" response="0" foes="0" cont="0"/>
    </junction>
    <junction id="S0" type="priority" x="1079.71" y="0.00" incLanes="J0_0_to_S0_0" intLanes=":S0_0_0" shape="1079.71,0.00 1077.91,-0.01 1079.71,0.00">
        <request index="0" response="0" foes="0" cont="0"/>
    </junction>
    <junction id="W0" type="priority" x="0.00" y="880.00" incLanes="J0_0_to_W0_0" intLanes=":W0_0_0" shape="0.00,880.00 -0.00,881.80 0.00,880.00">
        <request index="0" response="0" foes="0" cont="0"/>
    </junction>

    <junction id=":J0_0_16_0" type="internal" x="1075.67" y="883.14" incLanes=":J0_0_2_0 S0_to_J0_0_0" intLanes=":J0_0_5_0 :J0_0_6_0 :J0_0_7_0 :J0_0_8_0 :J0_0_9_0 :J0_0_13_0 :J0_0_14_0"/>
    <junction id=":J0_0_17_0" type="internal" x="1075.68" y="887.74" incLanes=":J0_0_3_0 E0_to_J0_0_0 S0_to_J0_0_0 W0_to_J0_0_0" intLanes=":J0_0_4_0 :J0_0_9_0 :J0_0_14_0"/>
    <junction id=":J0_0_18_0" type="internal" x="1075.88" y="881.55" incLanes=":J0_0_6_0 W0_to_J0_0_0" intLanes=":J0_0_1_0 :J0_0_2_0 :J0_0_9_0 :J0_0_10_0 :J0_0_11_0 :J0_0_12_0 :J0_0_13_0"/>
    <junction id=":J0_0_19_0" type="internal" x="1080.45" y="881.55" incLanes=":J0_0_7_0 N0_to_J0_0_0 S0_to_J0_0_0 W0_to_J0_0_0" intLanes=":J0_0_2_0 :J0_0_8_0 :J0_0_13_0"/>
    <junction id=":J0_0_20_0" type="internal" x="1074.29" y="881.31" incLanes=":J0_0_10_0 N0_to_J0_0_0" intLanes=":J0_0_0_0 :J0_0_1_0 :J0_0_5_0 :J0_0_6_0 :J0_0_13_0 :J0_0_14_0 :J0_0_15_0"/>
    <junction id=":J0_0_21_0" type="internal" x="1074.31" y="876.76" incLanes=":J0_0_11_0 E0_to_J0_0_0 N0_to_J0_0_0 W0_to_J0_0_0" intLanes=":J0_0_1_0 :J0_0_6_0 :J0_0_12_0"/>
    <junction id=":J0_0_22_0" type="internal" x="1074.05" y="882.94" incLanes=":J0_0_14_0 E0_to_J0_0_0" intLanes=":J0_0_1_0 :J0_0_2_0 :J0_0_3_0 :J0_0_4_0 :J0_0_5_0 :J0_0_9_0 :J0_0_10_0"/>
    <junction id=":J0_0_23_0" type="internal" x="1069.49" y="882.92" incLanes=":J0_0_15_0 E0_to_J0_0_0 N0_to_J0_0_0 S0_to_J0_0_0" intLanes=":J0_0_0_0 :J0_0_5_0 :J0_0_10_0"/>

    <connection from="E0_to_J0_0" to="J0_0_to_N0" fromLane="0" toLane="0" via=":J0_0_4_0" tl="J0_0" linkIndex="4" dir="r" state="O"/>
    <connection from="E0_to_J0_0" to="J0_0_to_W0" fromLane="0" toLane="0" via=":J0_0_5_0" tl="J0_0" linkIndex="5" dir="s" state="O"/>
    <connection from="E0_to_J0_0" to="J0_0_to_S0" fromLane="0" toLane="0" via=":J0_0_6_0" tl="J0_0" linkIndex="6" dir="l" state="o"/>
    <connection from="E0_to_J0_0" to="J0_0_to_E0" fromLane="0" toLane="0" via=":J0_0_7_0" tl="J0_0" linkIndex="7" dir="t" state="o"/>
    <connection from="J0_0_to_E0" to="E0_to_J0_0" fromLane="0" toLane="0" via=":E0_0_0" dir="t" state="M"/>
    <connection from="J0_0_to_N0" to="N0_to_J0_0" fromLane="0" toLane="0" via=":N0_0_0" dir="t" state="M"/>
    <connection from="J0_0_to_S0" to="S0_to_J0_0" fromLane="0" toLane="0" via=":S0_0_0" dir="t" state="M"/>
    <connection from="J0_0_to_W0" to="W0_to_J0_0" fromLane="0" toLane="0" via=":W0_0_0" dir="t" state="M"/>
    <connection from="N0_to_J0_0" to="J0_0_to_W0" fromLane="0" toLane="0" via=":J0_0_0_0" tl="J0_0" linkIndex="0" dir="r" state="o"/>
    <connection from="N0_to_J0_0" to="J0_0_to_S0" fromLane="0" toLane="0" via=":J0_0_1_0" tl="J0_0" linkIndex="1" dir="s" state="o"/>
    <connection from="N0_to_J0_0" to="J0_0_to_E0" fromLane="0" toLane="0" via=":J0_0_2_0" tl="J0_0" linkIndex="2" dir="l" state="o"/>
    <connection from="N0_to_J0_0" to="J0_0_to_N0" fromLane="0" toLane="0" via=":J0_0_3_0" tl="J0_0" linkIndex="3" dir="t" state="o"/>
    <connection from="S0_to_J0_0" to="J0_0_to_E0" fromLane="0" toLane="0" via=":J0_0_8_0" tl="J0_0" linkIndex="8" dir="r" state="o"/>
    <connection from="S0_to_J0_0" to="J0_0_to_N0" fromLane="0" toLane="0" via=":J0_0_9_0" tl="J0_0" linkIndex="9" dir="s" state="o"/>
    <connection from="S0_to_J0_0" to="J0_0_to_W0" fromLane="0" toLane="0" via=":J0_0_10_0" tl="J0_0" linkIndex="10" dir="l" state="o"/>
    <connection from="S0_to_J0_0" to="J0_0_to_S0" fromLane="0" toLane="0" via=":J0_0_11_0" tl="J0_0" linkIndex="11" dir="t" state="o"/>
    <connection from="W0_to_J0_0" to="J0_0_to_S0" fromLane="0" toLane="0" via=":J0_0_12_0" tl="J0_0" linkIndex="12" dir="r" state="O"/>
    <connection from="W0_to_J0_0" to="J0_0_to_E0" fromLane="0" toLane="0" via=":J0_0_13_0" tl="J0_0" linkIndex="13" dir="s" state="O"/>
    <connection from="W0_to_J0_0" to="J0_0_to_N0" fromLane="0" toLane="0" via=":J0_0_14_0" tl="J0_0" linkIndex="14" dir="l" state="o"/>
    <connection from="W0_to_J0_0" to="J0_0_to_W0" fromLane="0" toLane="0" via=":J0_0_15_0" tl="J0_0" linkIndex="15" dir="t" state="o"/>

    <connection from=":E0_0" to="E0_to_J0_0" fromLane="0" toLane="0" dir="t" state="M"/>
    <connection from=":J0_0_0" to="J0_0_to_W0" fromLane="0" toLane="0" dir="r" state="M"/>
    <connection from=":J0_0_1" to="J0_0_to_S0" fromLane="0" toLane="0" dir="s" state="M"/>
    <connection from=":J0_0_2" to="J0_0_to_E0" fromLane="0" toLane="0" via=":J0_0_16_0" dir="l" state="m"/>
    <connection from=":J0_0_16" to="J0_0_to_E0" fromLane="0" toLane="0" dir="l" state="M"/>
    <connection from=":J0_0_3" to="J0_0_to_N0" fromLane="0" toLane="0" via=":J0_0_17_0" dir="t" state="m"/>
    <connection from=":J0_0_17" to="J0_0_to_N0" fromLane="0" toLane="0" dir="t" state="M"/>
    <connection from=":J0_0_4" to="J0_0_to_N0" fromLane="0" toLane="0" dir="r" state="M"/>
    <connection from=":J0_0_5" to="J0_0_to_W0" fromLane="0" toLane="0" dir="s" state="M"/>
    <connection from=":J0_0_6" to="J0_0_to_S0" fromLane="0" toLane="0" via=":J0_0_18_0" dir="l" state="m"/>
    <connection from=":J0_0_18" to="J0_0_to_S0" fromLane="0" toLane="0" dir="l" state="M"/>
    <connection from=":J0_0_7" to="J0_0_to_E0" fromLane="0" toLane="0" via=":J0_0_19_0" dir="t" state="m"/>
    <connection from=":J0_0_19" to="J0_0_to_E0" fromLane="0" toLane="0" dir="t" state="M"/>
    <connection from=":J0_0_8" to="J0_0_to_E0" fromLane="0" toLane="0" dir="r" state="M"/>
    <connection from=":J0_0_9" to="J0_0_to_N0" fromLane="0" toLane="0" dir="s" state="M"/>
    <connection from=":J0_0_10" to="J0_0_to_W0" fromLane="0" toLane="0" via=":J0_0_20_0" dir="l" state="m"/>
    <connection from=":J0_0_20" to="J0_0_to_W0" fromLane="0" toLane="0" dir="l" state="M"/>
    <connection from=":J0_0_11" to="J0_0_to_S0" fromLane="0" toLane="0" via=":J0_0_21_0" dir="t" state="m"/>
    <connection from=":J0_0_21" to="J0_0_to_S0" fromLane="0" toLane="0" dir="t" state="M"/>
    <connection from=":J0_0_12" to="J0_0_to_S0" fromLane="0" toLane="0" dir="r" state="M"/>
    <connection from=":J0_0_13" to="J0_0_to_E0" fromLane="0" toLane="0" dir="s" state="M"/>
    <connection from=":J0_0_14" to="J0_0_to_N0" fromLane="0" toLane="0" via=":J0_0_22_0" dir="l" state="m"/>
    <connection from=":J0_0_22" to="J0_0_to_N0" fromLane="0" toLane="0" dir="l" state="M"/>
    <connection from=":J0_0_15" to="J0_0_to_W0" fromLane="0" toLane="0" via=":J0_0_23_0" dir="t" state="m"/>
    <connection from=":J0_0_23" to="J0_0_to_W0" fromLane="0" toLane="0" dir="t" state="M"/>
    <connection from=":N0_0" to="N0_to_J0_0" fromLane="0" toLane="0" dir="t" state="M"/>
    <connection from=":S0_0" to="S0_to_J0_0" fromLane="0" toLane="0" dir="t" state="M"/>
    <connection from=":W0_0" to="W0_to_J0_0" fromLane="0" toLane="0" dir="t" state="M"/>

</net>
