<?xml version="1.0" encoding="UTF-8"?>

<!-- generated on 2026-04-12T18:12:55.520643+05:30 by Eclipse SUMO netconvert 1.26.0
<netconvertConfiguration xmlns:xsi="http://www.w3.org/2001/XMLSchema-instance" xsi:noNamespaceSchemaLocation="http://sumo.dlr.de/xsd/netconvertConfiguration.xsd">

    <input>
        <node-files value="C:\Users\santhosh\OneDrive\Desktop\trafiic pro\web_runs\20260412_181255_261586\area.nod.xml"/>
        <edge-files value="C:\Users\santhosh\OneDrive\Desktop\trafiic pro\web_runs\20260412_181255_261586\area.edg.xml"/>
    </input>

    <output>
        <output-file value="C:\Users\santhosh\OneDrive\Desktop\trafiic pro\web_runs\20260412_181255_261586\area.net.xml"/>
    </output>

    <building_defaults>
        <default.lanewidth value="1.5"/>
    </building_defaults>

    <junctions>
        <junctions.corner-detail value="0"/>
    </junctions>

</netconvertConfiguration>
-->

<net version="1.20" limitTurnSpeed="5.50" xmlns:xsi="http://www.w3.org/2001/XMLSchema-instance" xsi:noNamespaceSchemaLocation="http://sumo.dlr.de/xsd/net_file.xsd">

    <location netOffset="-50.00,-50.00" convBoundary="0.00,0.00,600.00,360.00" origBoundary="50.00,50.00,650.00,410.00" projParameter="!"/>

    <edge id=":P0_0" function="internal">
        <lane id=":P0_0_0" index="0" speed="2.22" length="1.50" width="1.50" shape="0.00,360.75 0.00,359.25"/>
    </edge>
    <edge id=":P0_1" function="internal">
        <lane id=":P0_1_0" index="0" speed="2.22" length="1.50" width="1.50" shape="0.00,360.75 0.00,359.25"/>
    </edge>
    <edge id=":P2_0" function="internal">
        <lane id=":P2_0_0" index="0" speed="2.50" length="2.19" width="1.50" shape="600.00,359.25 600.56,359.62 600.75,360.00 600.56,360.38 600.00,360.75"/>
    </edge>
    <edge id=":P3_0" function="internal">
        <lane id=":P3_0_0" index="0" speed="2.50" length="2.19" width="1.50" shape="599.25,0.00 599.62,-0.56 600.00,-0.75 600.38,-0.56 600.75,0.00"/>
    </edge>

    <edge id="E1_P0_P2" from="P0" to="P2" priority="-1">
        <lane id="E1_P0_P2_0" index="0" speed="13.90" length="600.00" width="1.50" shape="0.00,359.25 600.00,359.25"/>
    </edge>
    <edge id="E1_P2_P0" from="P2" to="P0" priority="-1">
        <lane id="E1_P2_P0_0" index="0" speed="13.90" length="600.00" width="1.50" shape="600.00,360.75 0.00,360.75"/>
    </edge>
    <edge id="E2_P0_P3" from="P0" to="P3" priority="-1" shape="0.00,360.00 600.00,360.00 600.00,0.00">
        <lane id="E2_P0_P3_0" index="0" speed="13.90" length="958.50" width="1.50" shape="0.00,359.25 599.25,359.25 599.25,0.00"/>
    </edge>
    <edge id="E2_P3_P0" from="P3" to="P0" priority="-1" shape="600.00,0.00 600.00,360.00 0.00,360.00">
        <lane id="E2_P3_P0_0" index="0" speed="13.90" length="961.50" width="1.50" shape="600.75,0.00 600.75,360.75 0.00,360.75"/>
    </edge>

    <junction id="P0" type="priority" x="0.00" y="360.00" incLanes="E1_P2_P0_0 E2_P3_P0_0" intLanes=":P0_0_0 :P0_1_0" shape="0.00,361.50 0.00,360.00 0.00,358.50">
        <request index="0" response="10" foes="10" cont="0"/>
        <request index="1" response="00" foes="01" cont="0"/>
    </junction>
    <junction id="P2" type="priority" x="600.00" y="360.00" incLanes="E1_P0_P2_0" intLanes=":P2_0_0" shape="600.00,360.00 600.00,358.50 600.00,360.00">
        <request index="0" response="0" foes="0" cont="0"/>
    </junction>
    <junction id="P3" type="priority" x="600.00" y="0.00" incLanes="E2_P0_P3_0" intLanes=":P3_0_0" shape="600.00,0.00 598.50,0.00 600.00,0.00">
        <request index="0" response="0" foes="0" cont="0"/>
    </junction>

    <connection from="E1_P0_P2" to="E1_P2_P0" fromLane="0" toLane="0" via=":P2_0_0" dir="t" state="M"/>
    <connection from="E1_P2_P0" to="E2_P0_P3" fromLane="0" toLane="0" via=":P0_0_0" dir="l" state="m"/>
    <connection from="E2_P0_P3" to="E2_P3_P0" fromLane="0" toLane="0" via=":P3_0_0" dir="t" state="M"/>
    <connection from="E2_P3_P0" to="E1_P0_P2" fromLane="0" toLane="0" keepClear="0" via=":P0_1_0" dir="l" state="M"/>

    <connection from=":P0_0" to="E2_P0_P3" fromLane="0" toLane="0" dir="l" state="M"/>
    <connection from=":P0_1" to="E1_P0_P2" fromLane="0" toLane="0" dir="l" state="M"/>
    <connection from=":P2_0" to="E1_P2_P0" fromLane="0" toLane="0" dir="t" state="M"/>
    <connection from=":P3_0" to="E2_P3_P0" fromLane="0" toLane="0" dir="t" state="M"/>

</net>
