<nodes>
    <node id="P0" x="490.0" y="360.0" type="traffic_light"/>
    <node id="P2" x="490.0" y="110.0" type="priority"/>
    <node id="P3" x="490.0" y="610.0" type="priority"/>
    <node id="P1" x="240.0" y="360.0" type="priority"/>
</nodes>