<?xml version="1.0" encoding="UTF-8"?>

<!-- generated on 2026-04-12T11:19:01.571025+05:30 by Eclipse SUMO netconvert 1.26.0
<netconvertConfiguration xmlns:xsi="http://www.w3.org/2001/XMLSchema-instance" xsi:noNamespaceSchemaLocation="http://sumo.dlr.de/xsd/netconvertConfiguration.xsd">

    <input>
        <node-files value="C:\Users\santhosh\OneDrive\Desktop\trafiic pro\web_runs\20260412_111901_374230\area.nod.xml"/>
        <edge-files value="C:\Users\santhosh\OneDrive\Desktop\trafiic pro\web_runs\20260412_111901_374230\area.edg.xml"/>
    </input>

    <output>
        <output-file value="C:\Users\santhosh\OneDrive\Desktop\trafiic pro\web_runs\20260412_111901_374230\area.net.xml"/>
    </output>

    <building_defaults>
        <default.lanewidth value="1.8"/>
    </building_defaults>

    <junctions>
        <junctions.corner-detail value="0"/>
    </junctions>

</netconvertConfiguration>
-->

<net version="1.20" limitTurnSpeed="5.50" xmlns:xsi="http://www.w3.org/2001/XMLSchema-instance" xsi:noNamespaceSchemaLocation="http://sumo.dlr.de/xsd/net_file.xsd">

    <location netOffset="-90.00,-90.00" convBoundary="0.00,0.00,800.00,540.00" origBoundary="90.00,90.00,890.00,630.00" projParameter="!"/>

    <edge id=":P0_0" function="internal">
        <lane id=":P0_0_0" index="0" speed="8.17" length="12.09" width="1.80" shape="322.77,336.08 319.28,337.02 316.70,338.53 315.02,340.63 314.23,343.32"/>
    </edge>
    <edge id=":P0_1" function="internal">
        <lane id=":P0_1_0" index="0" speed="13.90" length="31.87" width="1.80" shape="322.77,336.08 316.53,337.43 307.26,339.71 298.01,342.09 291.84,343.74"/>
    </edge>
    <edge id=":P0_2" function="internal">
        <lane id=":P0_2_0" index="0" speed="13.90" length="32.05" width="1.80" shape="322.77,336.08 290.90,339.51"/>
    </edge>
    <edge id=":P0_3" function="internal">
        <lane id=":P0_3_0" index="0" speed="6.06" length="6.38" width="1.80" shape="322.77,336.08 318.45,336.32 316.62,335.40"/>
    </edge>
    <edge id=":P0_4" function="internal">
        <lane id=":P0_4_0" index="0" speed="2.74" length="2.35" width="1.80" shape="322.77,336.08 322.03,335.75 321.74,335.34 321.89,334.86 322.28,334.49"/>
    </edge>
    <edge id=":P0_25" function="internal">
        <lane id=":P0_25_0" index="0" speed="6.06" length="6.98" width="1.80" shape="316.62,335.40 316.35,335.26 316.45,332.90 318.76,329.25"/>
    </edge>
    <edge id=":P0_26" function="internal">
        <lane id=":P0_26_0" index="0" speed="2.74" length="0.27" width="1.80" shape="322.28,334.49 322.48,334.31"/>
    </edge>
    <edge id=":P0_5" function="internal">
        <lane id=":P0_5_0" index="0" speed="4.72" length="7.70" width="1.80" shape="320.17,330.37 318.84,332.48 318.78,333.83 319.99,334.44 322.48,334.31"/>
    </edge>
    <edge id=":P0_6" function="internal">
        <lane id=":P0_6_0" index="0" speed="13.90" length="14.43" width="1.80" shape="320.17,330.37 318.01,333.35 316.24,336.45 314.96,339.75 314.23,343.32"/>
    </edge>
    <edge id=":P0_7" function="internal">
        <lane id=":P0_7_0" index="0" speed="13.90" length="31.46" width="1.80" shape="320.17,330.37 315.11,333.92 306.64,338.02 297.86,341.63 291.84,343.74"/>
    </edge>
    <edge id=":P0_8" function="internal">
        <lane id=":P0_8_0" index="0" speed="13.90" length="5.57" width="1.80" shape="320.17,330.37 316.23,333.60 315.79,333.78"/>
    </edge>
    <edge id=":P0_9" function="internal">
        <lane id=":P0_9_0" index="0" speed="2.74" length="2.13" width="1.80" shape="320.17,330.37 319.40,330.62 318.91,330.52 318.69,330.06 318.72,329.75"/>
    </edge>
    <edge id=":P0_27" function="internal">
        <lane id=":P0_27_0" index="0" speed="13.90" length="25.69" width="1.80" shape="315.79,333.78 310.04,336.20 301.60,338.17 290.90,339.51"/>
    </edge>
    <edge id=":P0_28" function="internal">
        <lane id=":P0_28_0" index="0" speed="2.74" length="0.50" width="1.80" shape="318.72,329.75 318.76,329.25"/>
    </edge>
    <edge id=":P0_10" function="internal">
        <lane id=":P0_10_0" index="0" speed="13.90" length="29.81" width="1.80" shape="290.75,337.72 301.07,336.44 309.18,334.61 315.08,332.21 318.76,329.25"/>
    </edge>
    <edge id=":P0_11" function="internal">
        <lane id=":P0_11_0" index="0" speed="13.90" length="31.92" width="1.80" shape="290.75,337.72 322.48,334.31"/>
    </edge>
    <edge id=":P0_12" function="internal">
        <lane id=":P0_12_0" index="0" speed="9.94" length="17.05" width="1.80" shape="290.75,337.72 300.15,337.20 307.77,337.67"/>
    </edge>
    <edge id=":P0_13" function="internal">
        <lane id=":P0_13_0" index="0" speed="4.47" length="3.02" width="1.80" shape="290.75,337.72 292.81,338.41 293.20,339.16"/>
    </edge>
    <edge id=":P0_14" function="internal">
        <lane id=":P0_14_0" index="0" speed="2.74" length="2.20" width="1.80" shape="290.75,337.72 291.46,338.11 291.72,338.54 291.54,339.00 291.24,339.24"/>
    </edge>
    <edge id=":P0_29" function="internal">
        <lane id=":P0_29_0" index="0" speed="9.94" length="9.36" width="1.80" shape="307.77,337.67 312.75,339.56 314.23,343.32"/>
    </edge>
    <edge id=":P0_30" function="internal">
        <lane id=":P0_30_0" index="0" speed="4.47" length="5.54" width="1.80" shape="293.20,339.16 293.79,340.27 293.53,342.37 291.84,343.74"/>
    </edge>
    <edge id=":P0_31" function="internal">
        <lane id=":P0_31_0" index="0" speed="2.74" length="0.43" width="1.80" shape="291.24,339.24 290.90,339.51"/>
    </edge>
    <edge id=":P0_15" function="internal">
        <lane id=":P0_15_0" index="0" speed="5.56" length="13.92" width="1.80" shape="291.35,342.00 296.26,340.47 297.83,339.54 296.04,339.22 290.90,339.51"/>
    </edge>
    <edge id=":P0_16" function="internal">
        <lane id=":P0_16_0" index="0" speed="13.90" length="30.37" width="1.80" shape="291.35,342.00 297.23,339.99 305.70,336.59 313.84,332.71 318.76,329.25"/>
    </edge>
    <edge id=":P0_17" function="internal">
        <lane id=":P0_17_0" index="0" speed="13.90" length="32.07" width="1.80" shape="291.35,342.00 297.56,340.35 306.87,337.95 316.21,335.66 322.48,334.31"/>
    </edge>
    <edge id=":P0_18" function="internal">
        <lane id=":P0_18_0" index="0" speed="9.25" length="25.56" width="1.80" shape="291.35,342.00 300.21,339.83 307.67,338.89 312.70,339.83 314.23,343.32"/>
    </edge>
    <edge id=":P0_19" function="internal">
        <lane id=":P0_19_0" index="0" speed="2.74" length="2.31" width="1.80" shape="291.35,342.00 292.13,342.26 292.46,342.63 292.37,343.12 292.05,343.50"/>
    </edge>
    <edge id=":P0_32" function="internal">
        <lane id=":P0_32_0" index="0" speed="2.74" length="0.32" width="1.80" shape="292.05,343.50 291.84,343.74"/>
    </edge>
    <edge id=":P0_20" function="internal">
        <lane id=":P0_20_0" index="0" speed="8.62" length="22.13" width="1.80" shape="312.44,343.12 311.38,341.17 307.59,340.62 301.08,341.48 291.84,343.74"/>
    </edge>
    <edge id=":P0_21" function="internal">
        <lane id=":P0_21_0" index="0" speed="9.34" length="23.24" width="1.80" shape="312.44,343.12 311.33,340.82 307.37,339.45 300.56,339.01 290.90,339.51"/>
    </edge>
    <edge id=":P0_22" function="internal">
        <lane id=":P0_22_0" index="0" speed="13.90" length="15.41" width="1.80" shape="312.44,343.12 313.23,339.40 314.64,335.79 316.54,332.37 318.76,329.25"/>
    </edge>
    <edge id=":P0_23" function="internal">
        <lane id=":P0_23_0" index="0" speed="8.90" length="7.15" width="1.80" shape="312.44,343.12 313.38,339.83 315.36,337.26 315.78,337.01"/>
    </edge>
    <edge id=":P0_24" function="internal">
        <lane id=":P0_24_0" index="0" speed="2.74" length="2.42" width="1.80" shape="312.44,343.12 312.97,342.50 313.44,342.32 313.86,342.60 314.14,343.13"/>
    </edge>
    <edge id=":P0_33" function="internal">
        <lane id=":P0_33_0" index="0" speed="8.90" length="7.29" width="1.80" shape="315.78,337.01 318.40,335.42 322.48,334.31"/>
    </edge>
    <edge id=":P0_34" function="internal">
        <lane id=":P0_34_0" index="0" speed="2.74" length="0.21" width="1.80" shape="314.14,343.13 314.23,343.32"/>
    </edge>
    <edge id=":P1_0" function="internal">
        <lane id=":P1_0_0" index="0" speed="13.90" length="25.70" width="1.80" shape="545.10,368.30 541.17,364.43 535.53,359.40 529.62,354.94 524.84,352.82"/>
    </edge>
    <edge id=":P1_1" function="internal">
        <lane id=":P1_1_0" index="0" speed="13.90" length="26.94" width="1.80" shape="545.10,368.30 541.28,364.07 536.23,357.90 531.75,351.47 529.66,346.46"/>
    </edge>
    <edge id=":P1_2" function="internal">
        <lane id=":P1_2_0" index="0" speed="4.51" length="3.15" width="1.80" shape="545.10,368.30 544.31,366.24 544.67,365.37"/>
    </edge>
    <edge id=":P1_3" function="internal">
        <lane id=":P1_3_0" index="0" speed="2.74" length="2.29" width="1.80" shape="545.10,368.30 544.95,367.50 545.12,367.03 545.60,366.87 546.06,366.97"/>
    </edge>
    <edge id=":P1_16" function="internal">
        <lane id=":P1_16_0" index="0" speed="4.51" length="5.53" width="1.80" shape="544.67,365.37 545.12,364.27 546.91,363.12 549.08,363.53"/>
    </edge>
    <edge id=":P1_17" function="internal">
        <lane id=":P1_17_0" index="0" speed="2.74" length="0.34" width="1.80" shape="546.06,366.97 546.39,367.04"/>
    </edge>
    <edge id=":P1_4" function="internal">
        <lane id=":P1_4_0" index="0" speed="5.38" length="12.84" width="1.80" shape="548.08,365.03 544.06,362.53 542.44,362.04 543.22,363.54 546.39,367.04"/>
    </edge>
    <edge id=":P1_5" function="internal">
        <lane id=":P1_5_0" index="0" speed="13.90" length="26.35" width="1.80" shape="548.08,365.03 543.39,362.01 536.77,358.06 529.99,354.54 524.84,352.82"/>
    </edge>
    <edge id=":P1_6" function="internal">
        <lane id=":P1_6_0" index="0" speed="13.90" length="24.01" width="1.80" shape="548.08,365.03 540.22,359.37 534.53,354.39 531.01,350.08 530.59,348.95"/>
    </edge>
    <edge id=":P1_7" function="internal">
        <lane id=":P1_7_0" index="0" speed="2.74" length="2.19" width="1.80" shape="548.08,365.03 547.77,364.28 547.83,363.78 548.27,363.53 548.64,363.53"/>
    </edge>
    <edge id=":P1_18" function="internal">
        <lane id=":P1_18_0" index="0" speed="13.90" length="2.66" width="1.80" shape="530.59,348.95 529.66,346.46"/>
    </edge>
    <edge id=":P1_19" function="internal">
        <lane id=":P1_19_0" index="0" speed="2.74" length="0.44" width="1.80" shape="548.64,363.53 549.08,363.53"/>
    </edge>
    <edge id=":P1_8" function="internal">
        <lane id=":P1_8_0" index="0" speed="13.90" length="25.08" width="1.80" shape="531.45,346.32 532.73,349.53 536.09,353.47 541.54,358.14 549.08,363.53"/>
    </edge>
    <edge id=":P1_9" function="internal">
        <lane id=":P1_9_0" index="0" speed="13.90" length="25.75" width="1.80" shape="531.45,346.32 533.47,351.15 537.77,357.20 542.65,362.99 546.39,367.04"/>
    </edge>
    <edge id=":P1_10" function="internal">
        <lane id=":P1_10_0" index="0" speed="6.59" length="8.81" width="1.80" shape="531.45,346.32 531.26,349.42 530.09,351.54 527.95,352.68 527.09,352.72"/>
    </edge>
    <edge id=":P1_11" function="internal">
        <lane id=":P1_11_0" index="0" speed="2.74" length="0.32" width="1.80" shape="531.45,346.32 531.30,346.60"/>
    </edge>
    <edge id=":P1_20" function="internal">
        <lane id=":P1_20_0" index="0" speed="6.59" length="2.25" width="1.80" shape="527.09,352.72 524.84,352.82"/>
    </edge>
    <edge id=":P1_21" function="internal">
        <lane id=":P1_21_0" index="0" speed="2.74" length="2.31" width="1.80" shape="531.30,346.60 531.06,347.03 530.63,347.29 530.16,347.10 529.66,346.46"/>
    </edge>
    <edge id=":P1_12" function="internal">
        <lane id=":P1_12_0" index="0" speed="5.59" length="7.77" width="1.80" shape="525.02,351.03 527.20,350.93 528.70,350.13 529.52,348.64 529.66,346.46"/>
    </edge>
    <edge id=":P1_13" function="internal">
        <lane id=":P1_13_0" index="0" speed="13.90" length="27.22" width="1.80" shape="525.02,351.03 530.29,352.80 537.36,356.42 544.27,360.47 549.08,363.53"/>
    </edge>
    <edge id=":P1_14" function="internal">
        <lane id=":P1_14_0" index="0" speed="13.90" length="12.70" width="1.80" shape="525.02,351.03 529.97,353.23 535.83,357.55"/>
    </edge>
    <edge id=":P1_15" function="internal">
        <lane id=":P1_15_0" index="0" speed="2.74" length="1.31" width="1.80" shape="525.02,351.03 525.64,351.54 525.82,352.01"/>
    </edge>
    <edge id=":P1_22" function="internal">
        <lane id=":P1_22_0" index="0" speed="13.90" length="14.21" width="1.80" shape="535.83,357.55 536.26,357.87 542.28,363.10 546.39,367.04"/>
    </edge>
    <edge id=":P1_23" function="internal">
        <lane id=":P1_23_0" index="0" speed="2.74" length="1.31" width="1.80" shape="525.82,352.01 525.56,352.44 524.84,352.82"/>
    </edge>
    <edge id=":P2_0" function="internal">
        <lane id=":P2_0_0" index="0" speed="2.74" length="2.63" width="1.80" shape="0.37,388.25 -0.43,388.12 -0.82,387.80 -0.80,387.29 -0.37,386.61"/>
    </edge>
    <edge id=":P3_0" function="internal">
        <lane id=":P3_0_0" index="0" speed="2.74" length="2.63" width="1.80" shape="800.10,468.22 800.72,468.74 800.89,469.21 800.62,469.64 799.90,470.00"/>
    </edge>
    <edge id=":P4_0" function="internal">
        <lane id=":P4_0_0" index="0" speed="2.74" length="2.63" width="1.80" shape="-0.04,353.89 -0.69,353.41 -0.90,352.95 -0.66,352.51 0.04,352.09"/>
    </edge>
    <edge id=":P5_0" function="internal">
        <lane id=":P5_0_0" index="0" speed="2.74" length="2.63" width="1.80" shape="392.28,443.94 392.63,444.67 392.59,445.17 392.17,445.44 391.36,445.48"/>
    </edge>
    <edge id=":P6_0" function="internal">
        <lane id=":P6_0_0" index="0" speed="2.74" length="2.63" width="1.80" shape="361.36,-0.02 361.82,-0.68 362.28,-0.90 362.72,-0.67 363.16,0.02"/>
    </edge>
    <edge id=":P7_0" function="internal">
        <lane id=":P7_0_0" index="0" speed="2.74" length="2.63" width="1.80" shape="698.36,539.33 698.56,540.11 698.43,540.60 697.97,540.78 697.16,540.67"/>
    </edge>
    <edge id=":P8_0" function="internal">
        <lane id=":P8_0_0" index="0" speed="2.74" length="2.63" width="1.80" shape="724.80,62.99 725.56,62.72 726.06,62.81 726.28,63.26 726.24,64.07"/>
    </edge>

    <edge id="E0_P0_P2" from="P0" to="P2" priority="-1" shape="314.08,336.59 184.61,347.86 61.52,360.01 0.00,387.43">
        <lane id="E0_P0_P2_0" index="0" speed="13.90" length="297.36" width="1.80" shape="290.90,339.51 184.69,348.76 61.75,360.89 0.37,388.25"/>
    </edge>
    <edge id="E0_P2_P0" from="P2" to="P0" priority="-1" shape="0.00,387.43 61.52,360.01 184.61,347.86 314.08,336.59">
        <lane id="E0_P2_P0_0" index="0" speed="13.90" length="297.96" width="1.80" shape="-0.37,386.61 61.29,359.13 184.53,346.96 290.75,337.72"/>
    </edge>
    <edge id="E1_P0_P1" from="P0" to="P1" priority="-1" shape="314.08,336.59 430.78,317.55 492.30,348.76 531.05,352.52">
        <lane id="E1_P0_P1_0" index="0" speed="13.90" length="211.60" width="1.80" shape="322.48,334.31 430.93,316.61 492.56,347.88 525.02,351.03"/>
    </edge>
    <edge id="E1_P1_P0" from="P1" to="P0" priority="-1" shape="531.05,352.52 492.30,348.76 430.78,317.55 314.08,336.59">
        <lane id="E1_P1_P0_0" index="0" speed="13.90" length="211.10" width="1.80" shape="524.84,352.82 492.04,349.64 430.63,318.49 322.77,336.08"/>
    </edge>
    <edge id="E2_P1_P3" from="P1" to="P3" priority="-1" shape="531.05,352.52 615.39,409.11 676.91,449.21 738.48,461.95 800.00,469.11">
        <lane id="E2_P1_P3_0" index="0" speed="13.90" length="278.27" width="1.80" shape="549.08,363.53 615.89,408.36 677.26,448.36 738.62,461.06 800.10,468.22"/>
    </edge>
    <edge id="E2_P3_P1" from="P3" to="P1" priority="-1" shape="800.00,469.11 738.48,461.95 676.91,449.21 615.39,409.11 531.05,352.52">
        <lane id="E2_P3_P1_0" index="0" speed="13.90" length="279.13" width="1.80" shape="799.90,470.00 738.34,462.84 676.56,450.06 614.89,409.86 548.08,365.03"/>
    </edge>
    <edge id="E3_P0_P4" from="P0" to="P4" priority="-1" shape="314.08,336.59 246.17,355.56 123.09,358.18 0.00,352.99">
        <lane id="E3_P0_P4_0" index="0" speed="13.90" length="293.76" width="1.80" shape="291.84,343.74 246.30,356.46 123.08,359.08 -0.04,353.89"/>
    </edge>
    <edge id="E3_P4_P0" from="P4" to="P0" priority="-1" shape="0.00,352.99 123.09,358.18 246.17,355.56 314.08,336.59">
        <lane id="E3_P4_P0_0" index="0" speed="13.90" length="293.19" width="1.80" shape="0.04,352.09 123.10,357.28 246.04,354.66 291.35,342.00"/>
    </edge>
    <edge id="E4_P0_P5" from="P0" to="P5" priority="-1" shape="314.08,336.59 309.09,381.18 338.33,412.95 391.82,444.71">
        <lane id="E4_P0_P5_0" index="0" speed="13.90" length="142.50" width="1.80" shape="314.23,343.32 310.03,380.87 338.90,412.24 392.28,443.94"/>
    </edge>
    <edge id="E4_P5_P0" from="P5" to="P0" priority="-1" shape="391.82,444.71 338.33,412.95 309.09,381.18 314.08,336.59">
        <lane id="E4_P5_P0_0" index="0" speed="13.90" length="144.67" width="1.80" shape="391.36,445.48 337.76,413.66 308.15,381.49 312.44,343.12"/>
    </edge>
    <edge id="E5_P0_P6" from="P0" to="P6" priority="-1" shape="314.08,336.59 354.37,285.89 346.98,222.36 344.36,158.82 344.22,95.29 361.65,31.76 362.26,0.00">
        <lane id="E5_P0_P6_0" index="0" speed="13.90" length="344.20" width="1.80" shape="318.76,329.25 353.43,285.62 346.08,222.43 343.46,158.84 343.32,95.17 360.75,31.63 361.36,-0.02"/>
    </edge>
    <edge id="E5_P6_P0" from="P6" to="P0" priority="-1" shape="362.26,0.00 361.65,31.76 344.22,95.29 344.36,158.82 346.98,222.36 354.37,285.89 314.08,336.59">
        <lane id="E5_P6_P0_0" index="0" speed="13.90" length="345.45" width="1.80" shape="363.16,0.02 362.55,31.89 345.12,95.41 345.26,158.80 347.88,222.29 355.31,286.16 320.17,330.37"/>
    </edge>
    <edge id="E6_P1_P7" from="P1" to="P7" priority="-1" shape="531.05,352.52 558.85,381.18 627.77,412.95 653.45,444.71 661.88,508.24 697.76,540.00">
        <lane id="E6_P1_P7_0" index="0" speed="13.90" length="247.48" width="1.80" shape="546.39,367.04 559.38,380.43 628.34,412.22 654.31,444.34 662.73,507.79 698.36,539.33"/>
    </edge>
    <edge id="E6_P7_P1" from="P7" to="P1" priority="-1" shape="697.76,540.00 661.88,508.24 653.45,444.71 627.77,412.95 558.85,381.18 531.05,352.52">
        <lane id="E6_P7_P1_0" index="0" speed="13.90" length="247.64" width="1.80" shape="697.16,540.67 661.03,508.69 652.59,445.08 627.20,413.68 558.32,381.93 545.10,368.30"/>
    </edge>
    <edge id="E7_P1_P8" from="P1" to="P8" priority="-1" shape="531.05,352.52 528.25,317.64 594.76,254.11 627.16,222.36 672.47,190.60 678.28,127.07 725.52,63.53">
        <lane id="E7_P1_P8_0" index="0" speed="13.90" length="365.15" width="1.80" shape="529.66,346.46 527.32,317.29 594.13,253.46 626.58,221.67 671.61,190.10 677.41,126.74 724.80,62.99"/>
    </edge>
    <edge id="E7_P8_P1" from="P8" to="P1" priority="-1" shape="725.52,63.53 678.28,127.07 672.47,190.60 627.16,222.36 594.76,254.11 528.25,317.64 531.05,352.52">
        <lane id="E7_P8_P1_0" index="0" speed="13.90" length="363.82" width="1.80" shape="726.24,64.07 679.15,127.40 673.33,191.10 627.74,223.05 595.39,254.76 529.18,317.99 531.45,346.32"/>
    </edge>

    <tlLogic id="P0" type="static" programID="0" offset="0">
        <phase duration="27" state="GGGggrrrrrGGgggrrrrrrrrrr"/>
        <phase duration="3"  state="yyyyyrrrrryyyyyrrrrrrrrrr"/>
        <phase duration="27" state="rrrrrGGgggrrrrrrrrrrggGgg"/>
        <phase duration="3"  state="rrrrryyyyyrrrrrrrrrrgyyyy"/>
        <phase duration="27" state="rrrrrrrrrrrrrrrGGGGgGrrrr"/>
        <phase duration="3"  state="rrrrrrrrrrrrrrryyyyyyrrrr"/>
    </tlLogic>
    <tlLogic id="P1" type="static" programID="0" offset="0">
        <phase duration="42" state="rrrrGGggrrrrGGgg"/>
        <phase duration="3"  state="rrrryyyyrrrryyyy"/>
        <phase duration="42" state="GGggrrrrGGggrrrr"/>
        <phase duration="3"  state="yyyyrrrryyyyrrrr"/>
    </tlLogic>

    <junction id="P0" type="traffic_light" x="314.08" y="336.59" incLanes="E1_P1_P0_0 E5_P6_P0_0 E0_P2_P0_0 E3_P4_P0_0 E4_P5_P0_0" intLanes=":P0_0_0 :P0_1_0 :P0_2_0 :P0_25_0 :P0_26_0 :P0_5_0 :P0_6_0 :P0_7_0 :P0_27_0 :P0_28_0 :P0_10_0 :P0_11_0 :P0_29_0 :P0_30_0 :P0_31_0 :P0_15_0 :P0_16_0 :P0_17_0 :P0_18_0 :P0_32_0 :P0_20_0 :P0_21_0 :P0_22_0 :P0_33_0 :P0_34_0" shape="322.91,336.97 322.33,333.42 320.88,330.93 318.06,328.69 290.67,336.82 290.98,340.41 291.11,341.14 292.08,344.60 311.55,343.02 315.13,343.42">
        <request index="0"  response="0000000000000000000000000" foes="1000001000001000001000000" cont="0"/>
        <request index="1"  response="0100000000000000000000000" foes="0111111000011000011000000" cont="0"/>
        <request index="2"  response="0100000000000000100000000" foes="0111000111111000111000000" cont="0"/>
        <request index="3"  response="0100000000000110100000000" foes="0110000110000111111000000" cont="1"/>
        <request index="4"  response="0100000100000100000100000" foes="0100000100000100000100000" cont="1"/>
        <request index="5"  response="0000000100000100000000000" foes="0100000100000100000010000" cont="0"/>
        <request index="6"  response="0000000100001100000001111" foes="1100001100001100000001111" cont="0"/>
        <request index="7"  response="0010000000011100000001110" foes="0011111100011100000001110" cont="0"/>
        <request index="8"  response="0011000011011100000001100" foes="0011001011111100000001100" cont="1"/>
        <request index="9"  response="0010000010000010000001000" foes="0010000010000010000001000" cont="1"/>
        <request index="10" response="0000000000000000000000000" foes="0010000010000001000001000" cont="0"/>
        <request index="11" response="0100000000000000100000000" foes="0110000110000000111111000" cont="0"/>
        <request index="12" response="0100000000000000100000111" foes="1110001110000000111000111" cont="1"/>
        <request index="13" response="0000000000000000100000110" foes="0001111110000000110000110" cont="1"/>
        <request index="14" response="0001000001000000100000100" foes="0001000001000000100000100" cont="1"/>
        <request index="15" response="0000000000000000100000100" foes="0001000000100000100000100" cont="0"/>
        <request index="16" response="0010000000011110100001100" foes="0011000000011111100001100" cont="0"/>
        <request index="17" response="0100000000011100010001100" foes="0111000000011100011111100" cont="0"/>
        <request index="18" response="0110000000011000111000011" foes="1111000000011000111000011" cont="0"/>
        <request index="19" response="0000100000010000010000010" foes="0000100000010000010000010" cont="1"/>
        <request index="20" response="0000000000010000010000010" foes="0000010000010000010000010" cont="0"/>
        <request index="21" response="0000001111010000010000110" foes="0000001111110000110000110" cont="0"/>
        <request index="22" response="0000000100001110000001110" foes="0000001110001111110001110" cont="0"/>
        <request index="23" response="0000001100001100001101110" foes="0000001100001100001111110" cont="1"/>
        <request index="24" response="0000001000001000001000001" foes="0000001000001000001000001" cont="1"/>
    </junction>
    <junction id="P1" type="traffic_light" x="531.05" y="352.52" incLanes="E6_P7_P1_0 E2_P3_P1_0 E7_P8_P1_0 E1_P0_P1_0" intLanes=":P1_0_0 :P1_1_0 :P1_16_0 :P1_17_0 :P1_4_0 :P1_5_0 :P1_18_0 :P1_19_0 :P1_8_0 :P1_9_0 :P1_20_0 :P1_21_0 :P1_12_0 :P1_13_0 :P1_22_0 :P1_23_0" shape="544.45,368.92 547.04,366.42 547.58,365.78 549.58,362.79 532.35,346.25 528.76,346.53 525.10,350.13 524.75,353.72">
        <request index="0"  response="0000000000100000" foes="1000010000100000" cont="0"/>
        <request index="1"  response="0111000001100000" foes="0111110001100000" cont="0"/>
        <request index="2"  response="0110001101100000" foes="0110001111100000" cont="1"/>
        <request index="3"  response="0100001000010000" foes="0100001000010000" cont="1"/>
        <request index="4"  response="0000000000000000" foes="0100001000001000" cont="0"/>
        <request index="5"  response="0000010000000100" foes="1100011000000111" cont="0"/>
        <request index="6"  response="0011010000000100" foes="0111111000000110" cont="1"/>
        <request index="7"  response="0010000100000100" foes="0010000100000100" cont="1"/>
        <request index="8"  response="0010000000000000" foes="0010000010000100" cont="0"/>
        <request index="9"  response="0110000001110000" foes="0110000001111100" cont="0"/>
        <request index="10" response="0110000001100011" foes="1110000001100011" cont="1"/>
        <request index="11" response="0001000001000010" foes="0001000001000010" cont="1"/>
        <request index="12" response="0000000000000000" foes="0000100001000010" cont="0"/>
        <request index="13" response="0000010000000100" foes="0000011111000110" cont="0"/>
        <request index="14" response="0000010001110100" foes="0000011001111110" cont="1"/>
        <request index="15" response="0000010000100001" foes="0000010000100001" cont="1"/>
    </junction>
    <junction id="P2" type="priority" x="0.00" y="387.43" incLanes="E0_P0_P2_0" intLanes=":P2_0_0" shape="0.00,387.43 0.73,389.07 0.00,387.43">
        <request index="0" response="0" foes="0" cont="0"/>
    </junction>
    <junction id="P3" type="priority" x="800.00" y="469.11" incLanes="E2_P1_P3_0" intLanes=":P3_0_0" shape="800.00,469.11 800.21,467.32 800.00,469.11">
        <request index="0" response="0" foes="0" cont="0"/>
    </junction>
    <junction id="P4" type="priority" x="0.00" y="352.99" incLanes="E3_P0_P4_0" intLanes=":P4_0_0" shape="0.00,352.99 -0.08,354.79 0.00,352.99">
        <request index="0" response="0" foes="0" cont="0"/>
    </junction>
    <junction id="P5" type="priority" x="391.82" y="444.71" incLanes="E4_P0_P5_0" intLanes=":P5_0_0" shape="391.82,444.71 392.74,443.16 391.82,444.71">
        <request index="0" response="0" foes="0" cont="0"/>
    </junction>
    <junction id="P6" type="priority" x="362.26" y="0.00" incLanes="E5_P0_P6_0" intLanes=":P6_0_0" shape="362.26,0.00 360.46,-0.03 362.26,0.00">
        <request index="0" response="0" foes="0" cont="0"/>
    </junction>
    <junction id="P7" type="priority" x="697.76" y="540.00" incLanes="E6_P1_P7_0" intLanes=":P7_0_0" shape="697.76,540.00 698.95,538.65 697.76,540.00">
        <request index="0" response="0" foes="0" cont="0"/>
    </junction>
    <junction id="P8" type="priority" x="725.52" y="63.53" incLanes="E7_P1_P8_0" intLanes=":P8_0_0" shape="725.52,63.53 724.08,62.46 725.52,63.53">
        <request index="0" response="0" foes="0" cont="0"/>
    </junction>

    <junction id=":P0_25_0" type="internal" x="316.62" y="335.40" incLanes=":P0_3_0 E0_P2_P0_0" intLanes=":P0_6_0 :P0_7_0 :P0_8_0 :P0_9_0 :P0_10_0 :P0_11_0 :P0_16_0 :P0_17_0 :P0_22_0 :P0_23_0"/>
    <junction id=":P0_26_0" type="internal" x="322.28" y="334.49" incLanes=":P0_4_0 E0_P2_P0_0 E3_P4_P0_0 E4_P5_P0_0 E5_P6_P0_0" intLanes=":P0_5_0 :P0_11_0 :P0_17_0 :P0_23_0"/>
    <junction id=":P0_27_0" type="internal" x="315.79" y="333.78" incLanes=":P0_8_0 E4_P5_P0_0" intLanes=":P0_2_0 :P0_3_0 :P0_11_0 :P0_12_0 :P0_13_0 :P0_14_0 :P0_15_0 :P0_16_0 :P0_21_0 :P0_22_0"/>
    <junction id=":P0_28_0" type="internal" x="318.72" y="329.75" incLanes=":P0_9_0 E0_P2_P0_0 E1_P1_P0_0 E3_P4_P0_0 E4_P5_P0_0" intLanes=":P0_3_0 :P0_10_0 :P0_16_0 :P0_22_0"/>
    <junction id=":P0_29_0" type="internal" x="307.77" y="337.67" incLanes=":P0_12_0 E1_P1_P0_0" intLanes=":P0_0_0 :P0_1_0 :P0_2_0 :P0_6_0 :P0_7_0 :P0_8_0 :P0_16_0 :P0_17_0 :P0_18_0 :P0_22_0 :P0_23_0 :P0_24_0"/>
    <junction id=":P0_30_0" type="internal" x="293.20" y="339.16" incLanes=":P0_13_0 E1_P1_P0_0" intLanes=":P0_1_0 :P0_2_0 :P0_7_0 :P0_8_0 :P0_16_0 :P0_17_0 :P0_18_0 :P0_19_0 :P0_20_0 :P0_21_0"/>
    <junction id=":P0_31_0" type="internal" x="291.24" y="339.24" incLanes=":P0_14_0 E1_P1_P0_0 E3_P4_P0_0 E4_P5_P0_0 E5_P6_P0_0" intLanes=":P0_2_0 :P0_8_0 :P0_15_0 :P0_21_0"/>
    <junction id=":P0_32_0" type="internal" x="292.05" y="343.50" incLanes=":P0_19_0 E0_P2_P0_0 E1_P1_P0_0 E4_P5_P0_0 E5_P6_P0_0" intLanes=":P0_1_0 :P0_7_0 :P0_13_0 :P0_20_0"/>
    <junction id=":P0_33_0" type="internal" x="315.78" y="337.01" incLanes=":P0_23_0 E5_P6_P0_0" intLanes=":P0_1_0 :P0_2_0 :P0_3_0 :P0_4_0 :P0_5_0 :P0_6_0 :P0_11_0 :P0_12_0 :P0_17_0 :P0_18_0"/>
    <junction id=":P0_34_0" type="internal" x="314.14" y="343.13" incLanes=":P0_24_0 E0_P2_P0_0 E1_P1_P0_0 E3_P4_P0_0 E5_P6_P0_0" intLanes=":P0_0_0 :P0_6_0 :P0_12_0 :P0_18_0"/>
    <junction id=":P1_16_0" type="internal" x="544.67" y="365.37" incLanes=":P1_2_0 E7_P8_P1_0" intLanes=":P1_5_0 :P1_6_0 :P1_7_0 :P1_8_0 :P1_9_0 :P1_13_0 :P1_14_0"/>
    <junction id=":P1_17_0" type="internal" x="546.06" y="366.97" incLanes=":P1_3_0 E1_P0_P1_0 E2_P3_P1_0 E7_P8_P1_0" intLanes=":P1_4_0 :P1_9_0 :P1_14_0"/>
    <junction id=":P1_18_0" type="internal" x="530.59" y="348.95" incLanes=":P1_6_0 E1_P0_P1_0" intLanes=":P1_1_0 :P1_2_0 :P1_9_0 :P1_10_0 :P1_11_0 :P1_12_0 :P1_13_0"/>
    <junction id=":P1_19_0" type="internal" x="548.64" y="363.53" incLanes=":P1_7_0 E1_P0_P1_0 E6_P7_P1_0 E7_P8_P1_0" intLanes=":P1_2_0 :P1_8_0 :P1_13_0"/>
    <junction id=":P1_20_0" type="internal" x="527.09" y="352.72" incLanes=":P1_10_0 E6_P7_P1_0" intLanes=":P1_0_0 :P1_1_0 :P1_5_0 :P1_6_0 :P1_13_0 :P1_14_0 :P1_15_0"/>
    <junction id=":P1_21_0" type="internal" x="531.30" y="346.60" incLanes=":P1_11_0 E1_P0_P1_0 E2_P3_P1_0 E6_P7_P1_0" intLanes=":P1_1_0 :P1_6_0 :P1_12_0"/>
    <junction id=":P1_22_0" type="internal" x="535.83" y="357.55" incLanes=":P1_14_0 E2_P3_P1_0" intLanes=":P1_1_0 :P1_2_0 :P1_3_0 :P1_4_0 :P1_5_0 :P1_9_0 :P1_10_0"/>
    <junction id=":P1_23_0" type="internal" x="525.82" y="352.01" incLanes=":P1_15_0 E2_P3_P1_0 E6_P7_P1_0 E7_P8_P1_0" intLanes=":P1_0_0 :P1_5_0 :P1_10_0"/>
