<edges>
    <edge id="J0_0_to_J0_1" from="J0_0" to="J0_1" numLanes="2" speed="13.9"/>
    <edge id="J0_1_to_J0_0" from="J0_1" to="J0_0" numLanes="2" speed="13.9"/>
    <edge id="J0_0_to_J1_0" from="J0_0" to="J1_0" numLanes="2" speed="13.9"/>
    <edge id="J1_0_to_J0_0" from="J1_0" to="J0_0" numLanes="2" speed="13.9"/>
    <edge id="J0_1_to_J0_2" from="J0_1" to="J0_2" numLanes="2" speed="13.9"/>
    <edge id="J0_2_to_J0_1" from="J0_2" to="J0_1" numLanes="2" speed="13.9"/>
    <edge id="J0_1_to_J1_1" from="J0_1" to="J1_1" numLanes="2" speed="13.9"/>
    <edge id="J1_1_to_J0_1" from="J1_1" to="J0_1" numLanes="2" speed="13.9"/>
    <edge id="J0_2_to_J0_3" from="J0_2" to="J0_3" numLanes="2" speed="13.9"/>
    <edge id="J0_3_to_J0_2" from="J0_3" to="J0_2" numLanes="2" speed="13.9"/>
    <edge id="J0_2_to_J1_2" from="J0_2" to="J1_2" numLanes="2" speed="13.9"/>
    <edge id="J1_2_to_J0_2" from="J1_2" to="J0_2" numLanes="2" speed="13.9"/>
    <edge id="J0_3_to_J1_3" from="J0_3" to="J1_3" numLanes="2" speed="13.9"/>
    <edge id="J1_3_to_J0_3" from="J1_3" to="J0_3" numLanes="2" speed="13.9"/>
    <edge id="J1_0_to_J1_1" from="J1_0" to="J1_1" numLanes="2" speed="13.9"/>
    <edge id="J1_1_to_J1_0" from="J1_1" to="J1_0" numLanes="2" speed="13.9"/>
    <edge id="J1_0_to_J2_0" from="J1_0" to="J2_0" numLanes="2" speed="13.9"/>
    <edge id="J2_0_to_J1_0" from="J2_0" to="J1_0" numLanes="2" speed="13.9"/>
    <edge id="J1_1_to_J1_2" from="J1_1" to="J1_2" numLanes="2" speed="13.9"/>
    <edge id="J1_2_to_J1_1" from="J1_2" to="J1_1" numLanes="2" speed="13.9"/>
    <edge id="J1_1_to_J2_1" from="J1_1" to="J2_1" numLanes="2" speed="13.9"/>
    <edge id="J2_1_to_J1_1" from="J2_1" to="J1_1" numLanes="2" speed="13.9"/>
    <edge id="J1_2_to_J1_3" from="J1_2" to="J1_3" numLanes="2" speed="13.9"/>
    <edge id="J1_3_to_J1_2" from="J1_3" to="J1_2" numLanes="2" speed="13.9"/>
    <edge id="J1_2_to_J2_2" from="J1_2" to="J2_2" numLanes="2" speed="13.9"/>
    <edge id="J2_2_to_J1_2" from="J2_2" to="J1_2" numLanes="2" speed="13.9"/>
    <edge id="J1_3_to_J2_3" from="J1_3" to="J2_3" numLanes="2" speed="13.9"/>
    <edge id="J2_3_to_J1_3" from="J2_3" to="J1_3" numLanes="2" speed="13.9"/>
    <edge id="J2_0_to_J2_1" from="J2_0" to="J2_1" numLanes="2" speed="13.9"/>
    <edge id="J2_1_to_J2_0" from="J2_1" to="J2_0" numLanes="2" speed="13.9"/>
    <edge id="J2_0_to_J3_0" from="J2_0" to="J3_0" numLanes="2" speed="13.9"/>
    <edge id="J3_0_to_J2_0" from="J3_0" to="J2_0" numLanes="2" speed="13.9"/>
    <edge id="J2_1_to_J2_2" from="J2_1" to="J2_2" numLanes="2" speed="13.9"/>
    <edge id="J2_2_to_J2_1" from="J2_2" to="J2_1" numLanes="2" speed="13.9"/>
    <edge id="J2_1_to_J3_1" from="J2_1" to="J3_1" numLanes="2" speed="13.9"/>
    <edge id="J3_1_to_J2_1" from="J3_1" to="J2_1" numLanes="2" speed="13.9"/>
    <edge id="J2_2_to_J2_3" from="J2_2" to="J2_3" numLanes="2" speed="13.9"/>
    <edge id="J2_3_to_J2_2" from="J2_3" to="J2_2" numLanes="2" speed="13.9"/>
    <edge id="J2_2_to_J3_2" from="J2_2" to="J3_2" numLanes="2" speed="13.9"/>
    <edge id="J3_2_to_J2_2" from="J3_2" to="J2_2" numLanes="2" speed="13.9"/>
    <edge id="J2_3_to_J3_3" from="J2_3" to="J3_3" numLanes="2" speed="13.9"/>
    <edge id="J3_3_to_J2_3" from="J3_3" to="J2_3" numLanes="2" speed="13.9"/>
    <edge id="J3_0_to_J3_1" from="J3_0" to="J3_1" numLanes="2" speed="13.9"/>
    <edge id="J3_1_to_J3_0" from="J3_1" to="J3_0" numLanes="2" speed="13.9"/>
    <edge id="J3_1_to_J3_2" from="J3_1" to="J3_2" numLanes="2" speed="13.9"/>
    <edge id="J3_2_to_J3_1" from="J3_2" to="J3_1" numLanes="2" speed="13.9"/>
    <edge id="J3_2_to_J3_3" from="J3_2" to="J3_3" numLanes="2" speed="13.9"/>
    <edge id="J3_3_to_J3_2" from="J3_3" to="J3_2" numLanes="2" speed="13.9"/>
</edges>