<?xml version="1.0" encoding="UTF-8"?>

<!-- generated on 2026-04-11T14:24:29.792648+05:30 by Eclipse SUMO netconvert 1.26.0
<netconvertConfiguration xmlns:xsi="http://www.w3.org/2001/XMLSchema-instance" xsi:noNamespaceSchemaLocation="http://sumo.dlr.de/xsd/netconvertConfiguration.xsd">

    <input>
        <node-files value="C:\Users\santhosh\OneDrive\Desktop\trafiic pro\web_runs\20260411_142421_365253\grid.nod.xml"/>
        <edge-files value="C:\Users\santhosh\OneDrive\Desktop\trafiic pro\web_runs\20260411_142421_365253\grid.edg.xml"/>
    </input>

    <output>
        <output-file value="C:\Users\santhosh\OneDrive\Desktop\trafiic pro\web_runs\20260411_142421_365253\grid.net.xml"/>
    </output>

</netconvertConfiguration>
-->

<net version="1.20" junctionCornerDetail="5" limitTurnSpeed="5.50" xmlns:xsi="http://www.w3.org/2001/XMLSchema-instance" xsi:noNamespaceSchemaLocation="http://sumo.dlr.de/xsd/net_file.xsd">

    <location netOffset="0.00,0.00" convBoundary="0.00,0.00,600.00,600.00" origBoundary="0.00,0.00,600.00,600.00" projParameter="!"/>

    <edge id=":J0_0_0" function="internal">
        <lane id=":J0_0_0_0" index="0" speed="8.96" length="18.06" shape="-4.80,6.40 -4.10,1.50 -2.00,-2.00 1.50,-4.10 6.40,-4.80"/>
        <lane id=":J0_0_0_1" index="1" speed="7.66" length="12.90" shape="-1.60,6.40 -1.10,2.90 0.40,0.40 2.90,-1.10 6.40,-1.60"/>
    </edge>
    <edge id=":J0_0_2" function="internal">
        <lane id=":J0_0_2_0" index="0" speed="3.90" length="2.58" shape="6.40,4.80 5.70,4.90 5.20,5.20 4.90,5.70 4.80,6.40"/>
        <lane id=":J0_0_2_1" index="1" speed="6.08" length="7.74" shape="6.40,1.60 4.30,1.90 2.80,2.80 1.90,4.30 1.60,6.40"/>
    </edge>
    <edge id=":J0_1_0" function="internal">
        <lane id=":J0_1_0_0" index="0" speed="6.51" length="9.03" shape="195.20,10.40 194.85,7.95 193.80,6.20 192.05,5.15 189.60,4.80"/>
        <lane id=":J0_1_0_1" index="1" speed="8.00" length="14.19" shape="198.40,10.40 197.85,6.55 196.20,3.80 193.45,2.15 189.60,1.60"/>
    </edge>
    <edge id=":J0_1_2" function="internal">
        <lane id=":J0_1_2_0" index="0" speed="9.26" length="19.35" shape="198.40,10.40 199.15,5.15 201.40,1.40 205.15,-0.85 210.40,-1.60"/>
    </edge>
    <edge id=":J0_1_3" function="internal">
        <lane id=":J0_1_3_0" index="0" speed="3.65" length="2.34" shape="198.40,10.40 199.20,9.20 200.00,8.80"/>
    </edge>
    <edge id=":J0_1_12" function="internal">
        <lane id=":J0_1_12_0" index="0" speed="3.65" length="2.34" shape="200.00,8.80 200.80,9.20 201.60,10.40"/>
    </edge>
    <edge id=":J0_1_4" function="internal">
        <lane id=":J0_1_4_0" index="0" speed="6.51" length="9.03" shape="210.40,4.80 207.95,5.15 206.20,6.20 205.15,7.95 204.80,10.40"/>
    </edge>
    <edge id=":J0_1_5" function="internal">
        <lane id=":J0_1_5_0" index="0" speed="13.90" length="20.80" shape="210.40,4.80 189.60,4.80"/>
        <lane id=":J0_1_5_1" index="1" speed="13.90" length="20.80" shape="210.40,1.60 189.60,1.60"/>
    </edge>
    <edge id=":J0_1_7" function="internal">
        <lane id=":J0_1_7_0" index="0" speed="3.65" length="1.44" shape="210.40,1.60 209.20,0.80"/>
    </edge>
    <edge id=":J0_1_13" function="internal">
        <lane id=":J0_1_13_0" index="0" speed="3.65" length="3.23" shape="209.20,0.80 208.80,0.00 209.20,-0.80 210.40,-1.60"/>
    </edge>
    <edge id=":J0_1_8" function="internal">
        <lane id=":J0_1_8_0" index="0" speed="13.90" length="20.80" shape="189.60,-4.80 210.40,-4.80"/>
        <lane id=":J0_1_8_1" index="1" speed="13.90" length="20.80" shape="189.60,-1.60 210.40,-1.60"/>
    </edge>
    <edge id=":J0_1_10" function="internal">
        <lane id=":J0_1_10_0" index="0" speed="9.26" length="5.01" shape="189.60,-1.60 194.56,-0.89"/>
    </edge>
    <edge id=":J0_1_11" function="internal">
        <lane id=":J0_1_11_0" index="0" speed="3.65" length="1.44" shape="189.60,-1.60 190.80,-0.80"/>
    </edge>
    <edge id=":J0_1_14" function="internal">
        <lane id=":J0_1_14_0" index="0" speed="9.26" length="14.34" shape="194.56,-0.89 194.85,-0.85 198.60,1.40 200.85,5.15 201.60,10.40"/>
    </edge>
    <edge id=":J0_1_15" function="internal">
        <lane id=":J0_1_15_0" index="0" speed="3.65" length="3.23" shape="190.80,-0.80 191.20,0.00 190.80,0.80 189.60,1.60"/>
    </edge>
    <edge id=":J0_2_0" function="internal">
        <lane id=":J0_2_0_0" index="0" speed="6.51" length="9.03" shape="395.20,10.40 394.85,7.95 393.80,6.20 392.05,5.15 389.60,4.80"/>
        <lane id=":J0_2_0_1" index="1" speed="8.00" length="14.19" shape="398.40,10.40 397.85,6.55 396.20,3.80 393.45,2.15 389.60,1.60"/>
    </edge>
    <edge id=":J0_2_2" function="internal">
        <lane id=":J0_2_2_0" index="0" speed="9.26" length="19.35" shape="398.40,10.40 399.15,5.15 401.40,1.40 405.15,-0.85 410.40,-1.60"/>
    </edge>
    <edge id=":J0_2_3" function="internal">
        <lane id=":J0_2_3_0" index="0" speed="3.65" length="2.34" shape="398.40,10.40 399.20,9.20 400.00,8.80"/>
    </edge>
    <edge id=":J0_2_12" function="internal">
        <lane id=":J0_2_12_0" index="0" speed="3.65" length="2.34" shape="400.00,8.80 400.80,9.20 401.60,10.40"/>
    </edge>
    <edge id=":J0_2_4" function="internal">
        <lane id=":J0_2_4_0" index="0" speed="6.51" length="9.03" shape="410.40,4.80 407.95,5.15 406.20,6.20 405.15,7.95 404.80,10.40"/>
    </edge>
    <edge id=":J0_2_5" function="internal">
        <lane id=":J0_2_5_0" index="0" speed="13.90" length="20.80" shape="410.40,4.80 389.60,4.80"/>
        <lane id=":J0_2_5_1" index="1" speed="13.90" length="20.80" shape="410.40,1.60 389.60,1.60"/>
    </edge>
    <edge id=":J0_2_7" function="internal">
        <lane id=":J0_2_7_0" index="0" speed="3.65" length="1.44" shape="410.40,1.60 409.20,0.80"/>
    </edge>
    <edge id=":J0_2_13" function="internal">
        <lane id=":J0_2_13_0" index="0" speed="3.65" length="3.23" shape="409.20,0.80 408.80,0.00 409.20,-0.80 410.40,-1.60"/>
    </edge>
    <edge id=":J0_2_8" function="internal">
        <lane id=":J0_2_8_0" index="0" speed="13.90" length="20.80" shape="389.60,-4.80 410.40,-4.80"/>
        <lane id=":J0_2_8_1" index="1" speed="13.90" length="20.80" shape="389.60,-1.60 410.40,-1.60"/>
    </edge>
    <edge id=":J0_2_10" function="internal">
        <lane id=":J0_2_10_0" index="0" speed="9.26" length="5.01" shape="389.60,-1.60 394.56,-0.89"/>
    </edge>
    <edge id=":J0_2_11" function="internal">
        <lane id=":J0_2_11_0" index="0" speed="3.65" length="1.44" shape="389.60,-1.60 390.80,-0.80"/>
    </edge>
    <edge id=":J0_2_14" function="internal">
        <lane id=":J0_2_14_0" index="0" speed="9.26" length="14.34" shape="394.56,-0.89 394.85,-0.85 398.60,1.40 400.85,5.15 401.60,10.40"/>
    </edge>
    <edge id=":J0_2_15" function="internal">
        <lane id=":J0_2_15_0" index="0" speed="3.65" length="3.23" shape="390.80,-0.80 391.20,0.00 390.80,0.80 389.60,1.60"/>
    </edge>
    <edge id=":J0_3_0" function="internal">
        <lane id=":J0_3_0_0" index="0" speed="3.90" length="2.58" shape="595.20,6.40 595.10,5.70 594.80,5.20 594.30,4.90 593.60,4.80"/>
        <lane id=":J0_3_0_1" index="1" speed="6.08" length="7.74" shape="598.40,6.40 598.10,4.30 597.20,2.80 595.70,1.90 593.60,1.60"/>
    </edge>
    <edge id=":J0_3_2" function="internal">
        <lane id=":J0_3_2_0" index="0" speed="8.96" length="18.06" shape="593.60,-4.80 598.50,-4.10 602.00,-2.00 604.10,1.50 604.80,6.40"/>
        <lane id=":J0_3_2_1" index="1" speed="7.66" length="12.90" shape="593.60,-1.60 597.10,-1.10 599.60,0.40 601.10,2.90 601.60,6.40"/>
    </edge>
    <edge id=":J1_0_0" function="internal">
        <lane id=":J1_0_0_0" index="0" speed="13.90" length="20.80" shape="-4.80,210.40 -4.80,189.60"/>
        <lane id=":J1_0_0_1" index="1" speed="13.90" length="20.80" shape="-1.60,210.40 -1.60,189.60"/>
    </edge>
    <edge id=":J1_0_2" function="internal">
        <lane id=":J1_0_2_0" index="0" speed="9.26" length="5.01" shape="-1.60,210.40 -0.89,205.44"/>
    </edge>
    <edge id=":J1_0_3" function="internal">
        <lane id=":J1_0_3_0" index="0" speed="3.65" length="1.44" shape="-1.60,210.40 -0.80,209.20"/>
    </edge>
    <edge id=":J1_0_12" function="internal">
        <lane id=":J1_0_12_0" index="0" speed="9.26" length="14.34" shape="-0.89,205.44 -0.85,205.15 1.40,201.40 5.15,199.15 10.40,198.40"/>
    </edge>
    <edge id=":J1_0_13" function="internal">
        <lane id=":J1_0_13_0" index="0" speed="3.65" length="3.23" shape="-0.80,209.20 0.00,208.80 0.80,209.20 1.60,210.40"/>
    </edge>
    <edge id=":J1_0_4" function="internal">
        <lane id=":J1_0_4_0" index="0" speed="6.51" length="9.03" shape="10.40,204.80 7.95,205.15 6.20,206.20 5.15,207.95 4.80,210.40"/>
        <lane id=":J1_0_4_1" index="1" speed="8.00" length="14.19" shape="10.40,201.60 6.55,202.15 3.80,203.80 2.15,206.55 1.60,210.40"/>
    </edge>
    <edge id=":J1_0_6" function="internal">
        <lane id=":J1_0_6_0" index="0" speed="9.26" length="19.35" shape="10.40,201.60 5.15,200.85 1.40,198.60 -0.85,194.85 -1.60,189.60"/>
    </edge>
    <edge id=":J1_0_7" function="internal">
        <lane id=":J1_0_7_0" index="0" speed="3.65" length="2.34" shape="10.40,201.60 9.20,200.80 8.80,200.00"/>
    </edge>
    <edge id=":J1_0_14" function="internal">
        <lane id=":J1_0_14_0" index="0" speed="3.65" length="2.34" shape="8.80,200.00 9.20,199.20 10.40,198.40"/>
    </edge>
    <edge id=":J1_0_8" function="internal">
        <lane id=":J1_0_8_0" index="0" speed="6.51" length="9.03" shape="4.80,189.60 5.15,192.05 6.20,193.80 7.95,194.85 10.40,195.20"/>
    </edge>
    <edge id=":J1_0_9" function="internal">
        <lane id=":J1_0_9_0" index="0" speed="13.90" length="20.80" shape="4.80,189.60 4.80,210.40"/>
        <lane id=":J1_0_9_1" index="1" speed="13.90" length="20.80" shape="1.60,189.60 1.60,210.40"/>
    </edge>
    <edge id=":J1_0_11" function="internal">
        <lane id=":J1_0_11_0" index="0" speed="3.65" length="1.44" shape="1.60,189.60 0.80,190.80"/>
    </edge>
    <edge id=":J1_0_15" function="internal">
        <lane id=":J1_0_15_0" index="0" speed="3.65" length="3.23" shape="0.80,190.80 0.00,191.20 -0.80,190.80 -1.60,189.60"/>
    </edge>
    <edge id=":J1_1_0" function="internal">
        <lane id=":J1_1_0_0" index="0" speed="6.51" length="9.03" shape="195.20,210.40 194.85,207.95 193.80,206.20 192.05,205.15 189.60,204.80"/>
    </edge>
    <edge id=":J1_1_1" function="internal">
        <lane id=":J1_1_1_0" index="0" speed="13.90" length="20.80" shape="195.20,210.40 195.20,189.60"/>
        <lane id=":J1_1_1_1" index="1" speed="13.90" length="20.80" shape="198.40,210.40 198.40,189.60"/>
    </edge>
    <edge id=":J1_1_3" function="internal">
        <lane id=":J1_1_3_0" index="0" speed="9.26" length="5.01" shape="198.40,210.40 199.11,205.44"/>
    </edge>
    <edge id=":J1_1_4" function="internal">
        <lane id=":J1_1_4_0" index="0" speed="3.65" length="1.44" shape="198.40,210.40 199.20,209.20"/>
    </edge>
    <edge id=":J1_1_20" function="internal">
        <lane id=":J1_1_20_0" index="0" speed="9.26" length="14.34" shape="199.11,205.44 199.15,205.15 201.40,201.40 205.15,199.15 210.40,198.40"/>
    </edge>
    <edge id=":J1_1_21" function="internal">
        <lane id=":J1_1_21_0" index="0" speed="3.65" length="3.23" shape="199.20,209.20 200.00,208.80 200.80,209.20 201.60,210.40"/>
    </edge>
    <edge id=":J1_1_5" function="internal">
        <lane id=":J1_1_5_0" index="0" speed="6.51" length="9.03" shape="210.40,204.80 207.95,205.15 206.20,206.20 205.15,207.95 204.80,210.40"/>
    </edge>
    <edge id=":J1_1_6" function="internal">
        <lane id=":J1_1_6_0" index="0" speed="13.90" length="20.80" shape="210.40,204.80 189.60,204.80"/>
        <lane id=":J1_1_6_1" index="1" speed="13.90" length="20.80" shape="210.40,201.60 189.60,201.60"/>
    </edge>
    <edge id=":J1_1_8" function="internal">
        <lane id=":J1_1_8_0" index="0" speed="9.26" length="5.01" shape="210.40,201.60 205.44,200.89"/>
    </edge>
    <edge id=":J1_1_9" function="internal">
        <lane id=":J1_1_9_0" index="0" speed="3.65" length="1.44" shape="210.40,201.60 209.20,200.80"/>
    </edge>
    <edge id=":J1_1_22" function="internal">
        <lane id=":J1_1_22_0" index="0" speed="9.26" length="14.34" shape="205.44,200.89 205.15,200.85 201.40,198.60 199.15,194.85 198.40,189.60"/>
    </edge>
    <edge id=":J1_1_23" function="internal">
        <lane id=":J1_1_23_0" index="0" speed="3.65" length="3.23" shape="209.20,200.80 208.80,200.00 209.20,199.20 210.40,198.40"/>
    </edge>
    <edge id=":J1_1_10" function="internal">
        <lane id=":J1_1_10_0" index="0" speed="6.51" length="9.03" shape="204.80,189.60 205.15,192.05 206.20,193.80 207.95,194.85 210.40,195.20"/>
    </edge>
    <edge id=":J1_1_11" function="internal">
        <lane id=":J1_1_11_0" index="0" speed="13.90" length="20.80" shape="204.80,189.60 204.80,210.40"/>
        <lane id=":J1_1_11_1" index="1" speed="13.90" length="20.80" shape="201.60,189.60 201.60,210.40"/>
    </edge>
    <edge id=":J1_1_13" function="internal">
        <lane id=":J1_1_13_0" index="0" speed="9.26" length="5.01" shape="201.60,189.60 200.89,194.56"/>
    </edge>
    <edge id=":J1_1_14" function="internal">
        <lane id=":J1_1_14_0" index="0" speed="3.65" length="1.44" shape="201.60,189.60 200.80,190.80"/>
    </edge>
    <edge id=":J1_1_24" function="internal">
        <lane id=":J1_1_24_0" index="0" speed="9.26" length="14.34" shape="200.89,194.56 200.85,194.85 198.60,198.60 194.85,200.85 189.60,201.60"/>
    </edge>
    <edge id=":J1_1_25" function="internal">
        <lane id=":J1_1_25_0" index="0" speed="3.65" length="3.23" shape="200.80,190.80 200.00,191.20 199.20,190.80 198.40,189.60"/>
    </edge>
    <edge id=":J1_1_15" function="internal">
        <lane id=":J1_1_15_0" index="0" speed="6.51" length="9.03" shape="189.60,195.20 192.05,194.85 193.80,193.80 194.85,192.05 195.20,189.60"/>
    </edge>
    <edge id=":J1_1_16" function="internal">
        <lane id=":J1_1_16_0" index="0" speed="13.90" length="20.80" shape="189.60,195.20 210.40,195.20"/>
        <lane id=":J1_1_16_1" index="1" speed="13.90" length="20.80" shape="189.60,198.40 210.40,198.40"/>
    </edge>
    <edge id=":J1_1_18" function="internal">
        <lane id=":J1_1_18_0" index="0" speed="9.26" length="5.01" shape="189.60,198.40 194.56,199.11"/>
    </edge>
    <edge id=":J1_1_19" function="internal">
        <lane id=":J1_1_19_0" index="0" speed="3.65" length="1.44" shape="189.60,198.40 190.80,199.20"/>
    </edge>
    <edge id=":J1_1_26" function="internal">
        <lane id=":J1_1_26_0" index="0" speed="9.26" length="14.34" shape="194.56,199.11 194.85,199.15 198.60,201.40 200.85,205.15 201.60,210.40"/>
    </edge>
    <edge id=":J1_1_27" function="internal">
        <lane id=":J1_1_27_0" index="0" speed="3.65" length="3.23" shape="190.80,199.20 191.20,200.00 190.80,200.80 189.60,201.60"/>
    </edge>
    <edge id=":J1_2_0" function="internal">
        <lane id=":J1_2_0_0" index="0" speed="6.51" length="9.03" shape="395.20,210.40 394.85,207.95 393.80,206.20 392.05,205.15 389.60,204.80"/>
    </edge>
    <edge id=":J1_2_1" function="internal">
        <lane id=":J1_2_1_0" index="0" speed="13.90" length="20.80" shape="395.20,210.40 395.20,189.60"/>
        <lane id=":J1_2_1_1" index="1" speed="13.90" length="20.80" shape="398.40,210.40 398.40,189.60"/>
    </edge>
    <edge id=":J1_2_3" function="internal">
        <lane id=":J1_2_3_0" index="0" speed="9.26" length="5.01" shape="398.40,210.40 399.11,205.44"/>
    </edge>
    <edge id=":J1_2_4" function="internal">
        <lane id=":J1_2_4_0" index="0" speed="3.65" length="1.44" shape="398.40,210.40 399.20,209.20"/>
    </edge>
    <edge id=":J1_2_20" function="internal">
        <lane id=":J1_2_20_0" index="0" speed="9.26" length="14.34" shape="399.11,205.44 399.15,205.15 401.40,201.40 405.15,199.15 410.40,198.40"/>
    </edge>
    <edge id=":J1_2_21" function="internal">
        <lane id=":J1_2_21_0" index="0" speed="3.65" length="3.23" shape="399.20,209.20 400.00,208.80 400.80,209.20 401.60,210.40"/>
    </edge>
    <edge id=":J1_2_5" function="internal">
        <lane id=":J1_2_5_0" index="0" speed="6.51" length="9.03" shape="410.40,204.80 407.95,205.15 406.20,206.20 405.15,207.95 404.80,210.40"/>
    </edge>
    <edge id=":J1_2_6" function="internal">
        <lane id=":J1_2_6_0" index="0" speed="13.90" length="20.80" shape="410.40,204.80 389.60,204.80"/>
        <lane id=":J1_2_6_1" index="1" speed="13.90" length="20.80" shape="410.40,201.60 389.60,201.60"/>
    </edge>
    <edge id=":J1_2_8" function="internal">
        <lane id=":J1_2_8_0" index="0" speed="9.26" length="5.01" shape="410.40,201.60 405.44,200.89"/>
    </edge>
    <edge id=":J1_2_9" function="internal">
        <lane id=":J1_2_9_0" index="0" speed="3.65" length="1.44" shape="410.40,201.60 409.20,200.80"/>
    </edge>
    <edge id=":J1_2_22" function="internal">
        <lane id=":J1_2_22_0" index="0" speed="9.26" length="14.34" shape="405.44,200.89 405.15,200.85 401.40,198.60 399.15,194.85 398.40,189.60"/>
    </edge>
    <edge id=":J1_2_23" function="internal">
        <lane id=":J1_2_23_0" index="0" speed="3.65" length="3.23" shape="409.20,200.80 408.80,200.00 409.20,199.20 410.40,198.40"/>
    </edge>
    <edge id=":J1_2_10" function="internal">
        <lane id=":J1_2_10_0" index="0" speed="6.51" length="9.03" shape="404.80,189.60 405.15,192.05 406.20,193.80 407.95,194.85 410.40,195.20"/>
    </edge>
    <edge id=":J1_2_11" function="internal">
        <lane id=":J1_2_11_0" index="0" speed="13.90" length="20.80" shape="404.80,189.60 404.80,210.40"/>
        <lane id=":J1_2_11_1" index="1" speed="13.90" length="20.80" shape="401.60,189.60 401.60,210.40"/>
    </edge>
    <edge id=":J1_2_13" function="internal">
        <lane id=":J1_2_13_0" index="0" speed="9.26" length="5.01" shape="401.60,189.60 400.89,194.56"/>
    </edge>
    <edge id=":J1_2_14" function="internal">
        <lane id=":J1_2_14_0" index="0" speed="3.65" length="1.44" shape="401.60,189.60 400.80,190.80"/>
    </edge>
    <edge id=":J1_2_24" function="internal">
        <lane id=":J1_2_24_0" index="0" speed="9.26" length="14.34" shape="400.89,194.56 400.85,194.85 398.60,198.60 394.85,200.85 389.60,201.60"/>
    </edge>
    <edge id=":J1_2_25" function="internal">
        <lane id=":J1_2_25_0" index="0" speed="3.65" length="3.23" shape="400.80,190.80 400.00,191.20 399.20,190.80 398.40,189.60"/>
    </edge>
    <edge id=":J1_2_15" function="internal">
        <lane id=":J1_2_15_0" index="0" speed="6.51" length="9.03" shape="389.60,195.20 392.05,194.85 393.80,193.80 394.85,192.05 395.20,189.60"/>
    </edge>
    <edge id=":J1_2_16" function="internal">
        <lane id=":J1_2_16_0" index="0" speed="13.90" length="20.80" shape="389.60,195.20 410.40,195.20"/>
        <lane id=":J1_2_16_1" index="1" speed="13.90" length="20.80" shape="389.60,198.40 410.40,198.40"/>
    </edge>
    <edge id=":J1_2_18" function="internal">
        <lane id=":J1_2_18_0" index="0" speed="9.26" length="5.01" shape="389.60,198.40 394.56,199.11"/>
    </edge>
    <edge id=":J1_2_19" function="internal">
        <lane id=":J1_2_19_0" index="0" speed="3.65" length="1.44" shape="389.60,198.40 390.80,199.20"/>
    </edge>
    <edge id=":J1_2_26" function="internal">
        <lane id=":J1_2_26_0" index="0" speed="9.26" length="14.34" shape="394.56,199.11 394.85,199.15 398.60,201.40 400.85,205.15 401.60,210.40"/>
    </edge>
    <edge id=":J1_2_27" function="internal">
        <lane id=":J1_2_27_0" index="0" speed="3.65" length="3.23" shape="390.80,199.20 391.20,200.00 390.80,200.80 389.60,201.60"/>
    </edge>
    <edge id=":J1_3_0" function="internal">
        <lane id=":J1_3_0_0" index="0" speed="6.51" length="9.03" shape="595.20,210.40 594.85,207.95 593.80,206.20 592.05,205.15 589.60,204.80"/>
    </edge>
    <edge id=":J1_3_1" function="internal">
        <lane id=":J1_3_1_0" index="0" speed="13.90" length="20.80" shape="595.20,210.40 595.20,189.60"/>
        <lane id=":J1_3_1_1" index="1" speed="13.90" length="20.80" shape="598.40,210.40 598.40,189.60"/>
    </edge>
    <edge id=":J1_3_3" function="internal">
        <lane id=":J1_3_3_0" index="0" speed="3.65" length="1.44" shape="598.40,210.40 599.20,209.20"/>
    </edge>
    <edge id=":J1_3_12" function="internal">
        <lane id=":J1_3_12_0" index="0" speed="3.65" length="3.23" shape="599.20,209.20 600.00,208.80 600.80,209.20 601.60,210.40"/>
    </edge>
    <edge id=":J1_3_4" function="internal">
        <lane id=":J1_3_4_0" index="0" speed="13.90" length="20.80" shape="604.80,189.60 604.80,210.40"/>
        <lane id=":J1_3_4_1" index="1" speed="13.90" length="20.80" shape="601.60,189.60 601.60,210.40"/>
    </edge>
    <edge id=":J1_3_6" function="internal">
        <lane id=":J1_3_6_0" index="0" speed="9.26" length="5.01" shape="601.60,189.60 600.89,194.56"/>
    </edge>
    <edge id=":J1_3_7" function="internal">
        <lane id=":J1_3_7_0" index="0" speed="3.65" length="1.44" shape="601.60,189.60 600.80,190.80"/>
    </edge>
    <edge id=":J1_3_13" function="internal">
        <lane id=":J1_3_13_0" index="0" speed="9.26" length="14.34" shape="600.89,194.56 600.85,194.85 598.60,198.60 594.85,200.85 589.60,201.60"/>
    </edge>
    <edge id=":J1_3_14" function="internal">
        <lane id=":J1_3_14_0" index="0" speed="3.65" length="3.23" shape="600.80,190.80 600.00,191.20 599.20,190.80 598.40,189.60"/>
    </edge>
    <edge id=":J1_3_8" function="internal">
        <lane id=":J1_3_8_0" index="0" speed="6.51" length="9.03" shape="589.60,195.20 592.05,194.85 593.80,193.80 594.85,192.05 595.20,189.60"/>
        <lane id=":J1_3_8_1" index="1" speed="8.00" length="14.19" shape="589.60,198.40 593.45,197.85 596.20,196.20 597.85,193.45 598.40,189.60"/>
    </edge>
    <edge id=":J1_3_10" function="internal">
        <lane id=":J1_3_10_0" index="0" speed="9.26" length="19.35" shape="589.60,198.40 594.85,199.15 598.60,201.40 600.85,205.15 601.60,210.40"/>
    </edge>
    <edge id=":J1_3_11" function="internal">
        <lane id=":J1_3_11_0" index="0" speed="3.65" length="2.34" shape="589.60,198.40 590.80,199.20 591.20,200.00"/>
    </edge>
    <edge id=":J1_3_15" function="internal">
        <lane id=":J1_3_15_0" index="0" speed="3.65" length="2.34" shape="591.20,200.00 590.80,200.80 589.60,201.60"/>
    </edge>
    <edge id=":J2_0_0" function="internal">
        <lane id=":J2_0_0_0" index="0" speed="13.90" length="20.80" shape="-4.80,410.40 -4.80,389.60"/>
        <lane id=":J2_0_0_1" index="1" speed="13.90" length="20.80" shape="-1.60,410.40 -1.60,389.60"/>
    </edge>
    <edge id=":J2_0_2" function="internal">
        <lane id=":J2_0_2_0" index="0" speed="9.26" length="5.01" shape="-1.60,410.40 -0.89,405.44"/>
    </edge>
    <edge id=":J2_0_3" function="internal">
        <lane id=":J2_0_3_0" index="0" speed="3.65" length="1.44" shape="-1.60,410.40 -0.80,409.20"/>
    </edge>
    <edge id=":J2_0_12" function="internal">
        <lane id=":J2_0_12_0" index="0" speed="9.26" length="14.34" shape="-0.89,405.44 -0.85,405.15 1.40,401.40 5.15,399.15 10.40,398.40"/>
    </edge>
    <edge id=":J2_0_13" function="internal">
        <lane id=":J2_0_13_0" index="0" speed="3.65" length="3.23" shape="-0.80,409.20 0.00,408.80 0.80,409.20 1.60,410.40"/>
    </edge>
    <edge id=":J2_0_4" function="internal">
        <lane id=":J2_0_4_0" index="0" speed="6.51" length="9.03" shape="10.40,404.80 7.95,405.15 6.20,406.20 5.15,407.95 4.80,410.40"/>
        <lane id=":J2_0_4_1" index="1" speed="8.00" length="14.19" shape="10.40,401.60 6.55,402.15 3.80,403.80 2.15,406.55 1.60,410.40"/>
    </edge>
    <edge id=":J2_0_6" function="internal">
        <lane id=":J2_0_6_0" index="0" speed="9.26" length="19.35" shape="10.40,401.60 5.15,400.85 1.40,398.60 -0.85,394.85 -1.60,389.60"/>
    </edge>
    <edge id=":J2_0_7" function="internal">
        <lane id=":J2_0_7_0" index="0" speed="3.65" length="2.34" shape="10.40,401.60 9.20,400.80 8.80,400.00"/>
    </edge>
    <edge id=":J2_0_14" function="internal">
        <lane id=":J2_0_14_0" index="0" speed="3.65" length="2.34" shape="8.80,400.00 9.20,399.20 10.40,398.40"/>
    </edge>
    <edge id=":J2_0_8" function="internal">
        <lane id=":J2_0_8_0" index="0" speed="6.51" length="9.03" shape="4.80,389.60 5.15,392.05 6.20,393.80 7.95,394.85 10.40,395.20"/>
    </edge>
    <edge id=":J2_0_9" function="internal">
        <lane id=":J2_0_9_0" index="0" speed="13.90" length="20.80" shape="4.80,389.60 4.80,410.40"/>
        <lane id=":J2_0_9_1" index="1" speed="13.90" length="20.80" shape="1.60,389.60 1.60,410.40"/>
    </edge>
    <edge id=":J2_0_11" function="internal">
        <lane id=":J2_0_11_0" index="0" speed="3.65" length="1.44" shape="1.60,389.60 0.80,390.80"/>
    </edge>
    <edge id=":J2_0_15" function="internal">
        <lane id=":J2_0_15_0" index="0" speed="3.65" length="3.23" shape="0.80,390.80 0.00,391.20 -0.80,390.80 -1.60,389.60"/>
    </edge>
    <edge id=":J2_1_0" function="internal">
        <lane id=":J2_1_0_0" index="0" speed="6.51" length="9.03" shape="195.20,410.40 194.85,407.95 193.80,406.20 192.05,405.15 189.60,404.80"/>
    </edge>
    <edge id=":J2_1_1" function="internal">
        <lane id=":J2_1_1_0" index="0" speed="13.90" length="20.80" shape="195.20,410.40 195.20,389.60"/>
        <lane id=":J2_1_1_1" index="1" speed="13.90" length="20.80" shape="198.40,410.40 198.40,389.60"/>
    </edge>
    <edge id=":J2_1_3" function="internal">
        <lane id=":J2_1_3_0" index="0" speed="9.26" length="5.01" shape="198.40,410.40 199.11,405.44"/>
    </edge>
    <edge id=":J2_1_4" function="internal">
        <lane id=":J2_1_4_0" index="0" speed="3.65" length="1.44" shape="198.40,410.40 199.20,409.20"/>
    </edge>
    <edge id=":J2_1_20" function="internal">
        <lane id=":J2_1_20_0" index="0" speed="9.26" length="14.34" shape="199.11,405.44 199.15,405.15 201.40,401.40 205.15,399.15 210.40,398.40"/>
    </edge>
    <edge id=":J2_1_21" function="internal">
        <lane id=":J2_1_21_0" index="0" speed="3.65" length="3.23" shape="199.20,409.20 200.00,408.80 200.80,409.20 201.60,410.40"/>
    </edge>
    <edge id=":J2_1_5" function="internal">
        <lane id=":J2_1_5_0" index="0" speed="6.51" length="9.03" shape="210.40,404.80 207.95,405.15 206.20,406.20 205.15,407.95 204.80,410.40"/>
    </edge>
    <edge id=":J2_1_6" function="internal">
        <lane id=":J2_1_6_0" index="0" speed="13.90" length="20.80" shape="210.40,404.80 189.60,404.80"/>
        <lane id=":J2_1_6_1" index="1" speed="13.90" length="20.80" shape="210.40,401.60 189.60,401.60"/>
    </edge>
    <edge id=":J2_1_8" function="internal">
        <lane id=":J2_1_8_0" index="0" speed="9.26" length="5.01" shape="210.40,401.60 205.44,400.89"/>
    </edge>
    <edge id=":J2_1_9" function="internal">
        <lane id=":J2_1_9_0" index="0" speed="3.65" length="1.44" shape="210.40,401.60 209.20,400.80"/>
    </edge>
    <edge id=":J2_1_22" function="internal">
        <lane id=":J2_1_22_0" index="0" speed="9.26" length="14.34" shape="205.44,400.89 205.15,400.85 201.40,398.60 199.15,394.85 198.40,389.60"/>
    </edge>
    <edge id=":J2_1_23" function="internal">
        <lane id=":J2_1_23_0" index="0" speed="3.65" length="3.23" shape="209.20,400.80 208.80,400.00 209.20,399.20 210.40,398.40"/>
    </edge>
    <edge id=":J2_1_10" function="internal">
        <lane id=":J2_1_10_0" index="0" speed="6.51" length="9.03" shape="204.80,389.60 205.15,392.05 206.20,393.80 207.95,394.85 210.40,395.20"/>
    </edge>
    <edge id=":J2_1_11" function="internal">
        <lane id=":J2_1_11_0" index="0" speed="13.90" length="20.80" shape="204.80,389.60 204.80,410.40"/>
        <lane id=":J2_1_11_1" index="1" speed="13.90" length="20.80" shape="201.60,389.60 201.60,410.40"/>
    </edge>
    <edge id=":J2_1_13" function="internal">
        <lane id=":J2_1_13_0" index="0" speed="9.26" length="5.01" shape="201.60,389.60 200.89,394.56"/>
    </edge>
    <edge id=":J2_1_14" function="internal">
        <lane id=":J2_1_14_0" index="0" speed="3.65" length="1.44" shape="201.60,389.60 200.80,390.80"/>
    </edge>
    <edge id=":J2_1_24" function="internal">
        <lane id=":J2_1_24_0" index="0" speed="9.26" length="14.34" shape="200.89,394.56 200.85,394.85 198.60,398.60 194.85,400.85 189.60,401.60"/>
    </edge>
    <edge id=":J2_1_25" function="internal">
        <lane id=":J2_1_25_0" index="0" speed="3.65" length="3.23" shape="200.80,390.80 200.00,391.20 199.20,390.80 198.40,389.60"/>
    </edge>
    <edge id=":J2_1_15" function="internal">
        <lane id=":J2_1_15_0" index="0" speed="6.51" length="9.03" shape="189.60,395.20 192.05,394.85 193.80,393.80 194.85,392.05 195.20,389.60"/>
    </edge>
    <edge id=":J2_1_16" function="internal">
        <lane id=":J2_1_16_0" index="0" speed="13.90" length="20.80" shape="189.60,395.20 210.40,395.20"/>
        <lane id=":J2_1_16_1" index="1" speed="13.90" length="20.80" shape="189.60,398.40 210.40,398.40"/>
    </edge>
    <edge id=":J2_1_18" function="internal">
        <lane id=":J2_1_18_0" index="0" speed="9.26" length="5.01" shape="189.60,398.40 194.56,399.11"/>
    </edge>
    <edge id=":J2_1_19" function="internal">
        <lane id=":J2_1_19_0" index="0" speed="3.65" length="1.44" shape="189.60,398.40 190.80,399.20"/>
    </edge>
    <edge id=":J2_1_26" function="internal">
        <lane id=":J2_1_26_0" index="0" speed="9.26" length="14.34" shape="194.56,399.11 194.85,399.15 198.60,401.40 200.85,405.15 201.60,410.40"/>
    </edge>
    <edge id=":J2_1_27" function="internal">
        <lane id=":J2_1_27_0" index="0" speed="3.65" length="3.23" shape="190.80,399.20 191.20,400.00 190.80,400.80 189.60,401.60"/>
    </edge>
    <edge id=":J2_2_0" function="internal">