<?xml version="1.0" encoding="UTF-8"?>

<!-- generated on 2026-04-12T10:44:54.862884+05:30 by Eclipse SUMO netconvert 1.26.0
<netconvertConfiguration xmlns:xsi="http://www.w3.org/2001/XMLSchema-instance" xsi:noNamespaceSchemaLocation="http://sumo.dlr.de/xsd/netconvertConfiguration.xsd">

    <input>
        <node-files value="C:\Users\santhosh\OneDrive\Desktop\trafiic pro\web_runs\20260412_104454_745115\area.nod.xml"/>
        <edge-files value="C:\Users\santhosh\OneDrive\Desktop\trafiic pro\web_runs\20260412_104454_745115\area.edg.xml"/>
    </input>

    <output>
        <output-file value="C:\Users\santhosh\OneDrive\Desktop\trafiic pro\web_runs\20260412_104454_745115\area.net.xml"/>
    </output>

    <building_defaults>
        <default.lanewidth value="1.8"/>
    </building_defaults>

    <junctions>
        <junctions.corner-detail value="0"/>
    </junctions>

</netconvertConfiguration>
-->

<net version="1.20" limitTurnSpeed="5.50" xmlns:xsi="http://www.w3.org/2001/XMLSchema-instance" xsi:noNamespaceSchemaLocation="http://sumo.dlr.de/xsd/net_file.xsd">

    <location netOffset="0.00,0.00" convBoundary="0.00,0.00,900.00,900.00" origBoundary="0.00,0.00,900.00,900.00" projParameter="!"/>

    <edge id=":E0_0" function="internal">
        <lane id=":E0_0_0" index="0" speed="2.74" length="2.63" width="1.80" shape="900.00,106.03 900.67,106.48 900.90,106.93 900.67,107.38 900.00,107.83"/>
    </edge>
    <edge id=":E1_0" function="internal">
        <lane id=":E1_0_0" index="0" speed="2.74" length="2.63" width="1.80" shape="900.00,780.07 900.67,780.52 900.90,780.97 900.67,781.42 900.00,781.87"/>
    </edge>
    <edge id=":J0_0_0" function="internal">
        <lane id=":J0_0_0_0" index="0" speed="6.25" length="8.38" width="1.80" shape="147.58,107.31 145.36,107.63 143.74,108.60 142.71,110.23 142.28,112.51"/>
    </edge>
    <edge id=":J0_0_1" function="internal">
        <lane id=":J0_0_1_0" index="0" speed="13.90" length="15.38" width="1.80" shape="147.58,107.31 132.20,107.28"/>
        <lane id=":J0_0_1_1" index="1" speed="13.90" length="15.38" width="1.80" shape="147.58,105.51 132.20,105.48"/>
    </edge>
    <edge id=":J0_0_3" function="internal">
        <lane id=":J0_0_3_0" index="0" speed="7.76" length="6.08" width="1.80" shape="147.58,105.51 143.87,104.96 141.87,103.76"/>
    </edge>
    <edge id=":J0_0_4" function="internal">
        <lane id=":J0_0_4_0" index="0" speed="2.74" length="2.24" width="1.80" shape="147.58,105.51 146.91,105.06 146.69,104.60 146.91,104.16 147.26,103.92"/>
    </edge>
    <edge id=":J0_0_20" function="internal">
        <lane id=":J0_0_20_0" index="0" speed="7.76" length="7.62" width="1.80" shape="141.87,103.76 141.22,103.36 139.63,100.70 139.10,96.98"/>
    </edge>
    <edge id=":J0_0_21" function="internal">
        <lane id=":J0_0_21_0" index="0" speed="2.74" length="0.39" width="1.80" shape="147.26,103.92 147.59,103.71"/>
    </edge>
    <edge id=":J0_0_5" function="internal">
        <lane id=":J0_0_5_0" index="0" speed="5.99" length="7.92" width="1.80" shape="142.70,96.98 143.01,99.13 143.92,100.67 145.45,101.59 147.60,101.91"/>
    </edge>
    <edge id=":J0_0_6" function="internal">
        <lane id=":J0_0_6_0" index="0" speed="13.90" length="15.49" width="1.80" shape="142.70,96.98 142.28,112.51"/>
        <lane id=":J0_0_6_1" index="1" speed="13.90" length="15.49" width="1.80" shape="140.90,96.98 140.48,112.42"/>
    </edge>
    <edge id=":J0_0_8" function="internal">
        <lane id=":J0_0_8_0" index="0" speed="7.79" length="6.32" width="1.80" shape="140.90,96.98 140.36,100.70 139.02,102.88"/>
    </edge>
    <edge id=":J0_0_9" function="internal">
        <lane id=":J0_0_9_0" index="0" speed="2.74" length="2.30" width="1.80" shape="140.90,96.98 140.45,97.66 140.00,97.88 139.55,97.66 139.28,97.25"/>
    </edge>
    <edge id=":J0_0_22" function="internal">
        <lane id=":J0_0_22_0" index="0" speed="7.79" length="7.55" width="1.80" shape="139.02,102.88 138.73,103.36 136.01,104.95 132.20,105.48"/>
    </edge>
    <edge id=":J0_0_23" function="internal">
        <lane id=":J0_0_23_0" index="0" speed="2.74" length="0.33" width="1.80" shape="139.28,97.25 139.10,96.98"/>
    </edge>
    <edge id=":J0_0_10" function="internal">
        <lane id=":J0_0_10_0" index="0" speed="6.03" length="8.06" width="1.80" shape="132.20,101.88 134.43,101.57 136.03,100.66 136.98,99.12 137.30,96.98"/>
    </edge>
    <edge id=":J0_0_11" function="internal">
        <lane id=":J0_0_11_0" index="0" speed="13.90" length="15.39" width="1.80" shape="132.20,101.88 147.60,101.91"/>
        <lane id=":J0_0_11_1" index="1" speed="13.90" length="15.39" width="1.80" shape="132.20,103.68 147.59,103.71"/>
    </edge>
    <edge id=":J0_0_13" function="internal">
        <lane id=":J0_0_13_0" index="0" speed="7.65" length="6.12" width="1.80" shape="132.20,103.68 136.00,104.23 137.94,105.43"/>
    </edge>
    <edge id=":J0_0_14" function="internal">
        <lane id=":J0_0_14_0" index="0" speed="2.74" length="2.25" width="1.80" shape="132.20,103.68 132.88,104.13 133.10,104.58 132.88,105.03 132.52,105.27"/>
    </edge>
    <edge id=":J0_0_24" function="internal">
        <lane id=":J0_0_24_0" index="0" speed="7.65" length="7.78" width="1.80" shape="137.94,105.43 138.65,105.86 140.14,108.59 140.48,112.42"/>
    </edge>
    <edge id=":J0_0_25" function="internal">
        <lane id=":J0_0_25_0" index="0" speed="2.74" length="0.38" width="1.80" shape="132.52,105.27 132.20,105.48"/>
    </edge>
    <edge id=":J0_0_15" function="internal">
        <lane id=":J0_0_15_0" index="0" speed="5.85" length="7.86" width="1.80" shape="136.89,112.22 136.69,110.06 135.85,108.52 134.35,107.59 132.20,107.28"/>
    </edge>
    <edge id=":J0_0_16" function="internal">
        <lane id=":J0_0_16_0" index="0" speed="13.90" length="15.30" width="1.80" shape="136.89,112.22 137.30,96.98"/>
        <lane id=":J0_0_16_1" index="1" speed="13.90" length="15.30" width="1.80" shape="138.68,112.32 139.10,96.98"/>
    </edge>
    <edge id=":J0_0_18" function="internal">
        <lane id=":J0_0_18_0" index="0" speed="7.97" length="6.02" width="1.80" shape="138.68,112.32 139.41,108.54 140.59,106.71"/>
    </edge>
    <edge id=":J0_0_19" function="internal">
        <lane id=":J0_0_19_0" index="0" speed="2.74" length="2.19" width="1.80" shape="138.68,112.32 139.17,111.67 139.63,111.47 140.07,111.72 140.26,112.03"/>
    </edge>
    <edge id=":J0_0_26" function="internal">
        <lane id=":J0_0_26_0" index="0" speed="7.97" length="7.96" width="1.80" shape="140.59,106.71 141.14,105.85 143.87,104.23 147.59,103.71"/>
    </edge>
    <edge id=":J0_0_27" function="internal">
        <lane id=":J0_0_27_0" index="0" speed="2.74" length="0.44" width="1.80" shape="140.26,112.03 140.48,112.42"/>
    </edge>
    <edge id=":J0_1_0" function="internal">
        <lane id=":J0_1_0_0" index="0" speed="6.06" length="8.06" width="1.80" shape="792.50,109.63 790.34,109.94 788.78,110.88 787.83,112.45 787.49,114.65"/>
    </edge>
    <edge id=":J0_1_1" function="internal">
        <lane id=":J0_1_1_0" index="0" speed="13.90" length="18.84" width="1.80" shape="792.50,109.63 773.65,109.60"/>
        <lane id=":J0_1_1_1" index="1" speed="13.90" length="18.84" width="1.80" shape="792.50,107.83 773.66,107.80"/>
    </edge>
    <edge id=":J0_1_3" function="internal">
        <lane id=":J0_1_3_0" index="0" speed="8.15" length="7.32" width="1.80" shape="792.50,107.83 787.99,107.30 785.50,106.06"/>
    </edge>
    <edge id=":J0_1_4" function="internal">
        <lane id=":J0_1_4_0" index="0" speed="2.74" length="2.25" width="1.80" shape="792.50,107.83 791.83,107.38 791.60,106.93 791.83,106.48 792.18,106.24"/>
    </edge>
    <edge id=":J0_1_22" function="internal">
        <lane id=":J0_1_22_0" index="0" speed="8.15" length="7.89" width="1.80" shape="785.50,106.06 784.78,105.70 782.84,103.04 782.20,99.31"/>
    </edge>
    <edge id=":J0_1_23" function="internal">
        <lane id=":J0_1_23_0" index="0" speed="2.74" length="0.38" width="1.80" shape="792.18,106.24 792.50,106.03"/>
    </edge>
    <edge id=":J0_1_5" function="internal">
        <lane id=":J0_1_5_0" index="0" speed="5.98" length="7.92" width="1.80" shape="787.60,99.31 787.91,101.46 788.83,103.00 790.36,103.92 792.50,104.23"/>
    </edge>
    <edge id=":J0_1_6" function="internal">
        <lane id=":J0_1_6_0" index="0" speed="15.50" length="15.31" width="1.80" shape="787.60,99.31 787.49,114.65"/>
        <lane id=":J0_1_6_1" index="1" speed="15.50" length="15.31" width="1.80" shape="785.80,99.31 785.69,114.62"/>
        <lane id=":J0_1_6_2" index="2" speed="15.50" length="15.31" width="1.80" shape="784.00,99.31 783.89,114.60"/>
    </edge>
    <edge id=":J0_1_9" function="internal">
        <lane id=":J0_1_9_0" index="0" speed="8.14" length="5.67" width="1.80" shape="784.00,99.31 783.35,103.04 782.24,104.56"/>
    </edge>
    <edge id=":J0_1_10" function="internal">
        <lane id=":J0_1_10_0" index="0" speed="2.74" length="2.26" width="1.80" shape="784.00,99.31 783.55,99.99 783.10,100.21 782.65,99.99 782.41,99.62"/>
    </edge>
    <edge id=":J0_1_24" function="internal">
        <lane id=":J0_1_24_0" index="0" speed="8.14" length="9.55" width="1.80" shape="782.24,104.56 781.42,105.69 778.18,107.28 773.66,107.80"/>
    </edge>
    <edge id=":J0_1_25" function="internal">
        <lane id=":J0_1_25_0" index="0" speed="2.74" length="0.37" width="1.80" shape="782.41,99.62 782.20,99.31"/>
    </edge>
    <edge id=":J0_1_11" function="internal">
        <lane id=":J0_1_11_0" index="0" speed="5.97" length="7.92" width="1.80" shape="773.67,104.20 775.83,103.90 777.37,102.98 778.29,101.45 778.60,99.31"/>
    </edge>
    <edge id=":J0_1_12" function="internal">
        <lane id=":J0_1_12_0" index="0" speed="13.90" length="18.83" width="1.80" shape="773.67,104.20 792.50,104.23"/>
        <lane id=":J0_1_12_1" index="1" speed="13.90" length="18.83" width="1.80" shape="773.67,106.00 792.50,106.03"/>
    </edge>
    <edge id=":J0_1_14" function="internal">
        <lane id=":J0_1_14_0" index="0" speed="8.12" length="7.26" width="1.80" shape="773.67,106.00 778.19,106.55 780.60,107.76"/>
    </edge>
    <edge id=":J0_1_15" function="internal">
        <lane id=":J0_1_15_0" index="0" speed="2.74" length="2.24" width="1.80" shape="773.67,106.00 774.34,106.45 774.56,106.90 774.34,107.35 773.99,107.58"/>
    </edge>
    <edge id=":J0_1_26" function="internal">
        <lane id=":J0_1_26_0" index="0" speed="8.12" length="7.98" width="1.80" shape="780.60,107.76 781.40,108.16 783.30,110.85 783.89,114.60"/>
    </edge>
    <edge id=":J0_1_27" function="internal">
        <lane id=":J0_1_27_0" index="0" speed="2.74" length="0.39" width="1.80" shape="773.99,107.58 773.66,107.80"/>
    </edge>
    <edge id=":J0_1_16" function="internal">
        <lane id=":J0_1_16_0" index="0" speed="5.95" length="7.90" width="1.80" shape="778.50,114.52 778.22,112.37 777.32,110.84 775.80,109.91 773.65,109.60"/>
    </edge>
    <edge id=":J0_1_17" function="internal">
        <lane id=":J0_1_17_0" index="0" speed="15.50" length="15.24" width="1.80" shape="778.50,114.52 778.60,99.31"/>
        <lane id=":J0_1_17_1" index="1" speed="15.50" length="15.24" width="1.80" shape="780.30,114.55 780.40,99.31"/>
        <lane id=":J0_1_17_2" index="2" speed="15.50" length="15.24" width="1.80" shape="782.10,114.57 782.20,99.31"/>
    </edge>
    <edge id=":J0_1_20" function="internal">
        <lane id=":J0_1_20_0" index="0" speed="8.20" length="5.61" width="1.80" shape="782.10,114.57 782.79,110.83 783.86,109.38"/>
    </edge>
    <edge id=":J0_1_21" function="internal">
        <lane id=":J0_1_21_0" index="0" speed="2.74" length="2.23" width="1.80" shape="782.10,114.57 782.55,113.90 783.01,113.68 783.45,113.92 783.68,114.26"/>
    </edge>
    <edge id=":J0_1_28" function="internal">
        <lane id=":J0_1_28_0" index="0" speed="8.20" length="9.66" width="1.80" shape="783.86,109.38 784.75,108.17 787.99,106.56 792.50,106.03"/>
    </edge>
    <edge id=":J0_1_29" function="internal">
        <lane id=":J0_1_29_0" index="0" speed="2.74" length="0.40" width="1.80" shape="783.68,114.26 783.89,114.60"/>
    </edge>
    <edge id=":J1_0_0" function="internal">
        <lane id=":J1_0_0_0" index="0" speed="5.97" length="7.90" width="1.80" shape="100.65,797.83 100.34,795.69 99.42,794.15 97.89,793.24 95.75,792.93"/>
    </edge>
    <edge id=":J1_0_1" function="internal">
        <lane id=":J1_0_1_0" index="0" speed="13.90" length="19.13" width="1.80" shape="100.65,797.83 101.17,778.65"/>
        <lane id=":J1_0_1_1" index="1" speed="13.90" length="19.13" width="1.80" shape="102.45,797.83 102.97,778.75"/>
    </edge>
    <edge id=":J1_0_3" function="internal">
        <lane id=":J1_0_3_0" index="0" speed="8.25" length="7.59" width="1.80" shape="102.45,797.83 103.00,793.32 104.40,790.61"/>
    </edge>
    <edge id=":J1_0_4" function="internal">
        <lane id=":J1_0_4_0" index="0" speed="2.74" length="2.30" width="1.80" shape="102.45,797.83 102.90,797.15 103.35,796.93 103.80,797.15 104.07,797.56"/>
    </edge>
    <edge id=":J1_0_22" function="internal">
        <lane id=":J1_0_22_0" index="0" speed="8.25" length="7.90" width="1.80" shape="104.40,790.61 104.66,790.09 107.43,788.13 111.30,787.44"/>
    </edge>
    <edge id=":J1_0_23" function="internal">
        <lane id=":J1_0_23_0" index="0" speed="2.74" length="0.33" width="1.80" shape="104.07,797.56 104.25,797.83"/>
    </edge>
    <edge id=":J1_0_5" function="internal">
        <lane id=":J1_0_5_0" index="0" speed="6.13" length="8.28" width="1.80" shape="111.36,792.84 109.04,793.18 107.38,794.12 106.38,795.67 106.05,797.83"/>
    </edge>
    <edge id=":J1_0_6" function="internal">
        <lane id=":J1_0_6_0" index="0" speed="15.50" length="15.59" width="1.80" shape="111.36,792.84 95.75,792.93"/>
        <lane id=":J1_0_6_1" index="1" speed="15.50" length="15.59" width="1.80" shape="111.34,791.04 95.75,791.13"/>
        <lane id=":J1_0_6_2" index="2" speed="15.50" length="15.59" width="1.80" shape="111.32,789.24 95.75,789.33"/>
    </edge>
    <edge id=":J1_0_9" function="internal">
        <lane id=":J1_0_9_0" index="0" speed="8.03" length="5.73" width="1.80" shape="111.32,789.24 107.45,788.62 105.98,787.55"/>
    </edge>
    <edge id=":J1_0_10" function="internal">
        <lane id=":J1_0_10_0" index="0" speed="2.74" length="2.25" width="1.80" shape="111.32,789.24 110.64,788.80 110.41,788.35 110.63,787.90 110.99,787.65"/>
    </edge>
    <edge id=":J1_0_24" function="internal">
        <lane id=":J1_0_24_0" index="0" speed="8.03" length="9.75" width="1.80" shape="105.98,787.55 104.77,786.67 103.28,783.38 102.97,778.75"/>
    </edge>
    <edge id=":J1_0_25" function="internal">
        <lane id=":J1_0_25_0" index="0" speed="2.74" length="0.37" width="1.80" shape="110.99,787.65 111.30,787.44"/>
    </edge>
    <edge id=":J1_0_11" function="internal">
        <lane id=":J1_0_11_0" index="0" speed="5.82" length="7.86" width="1.80" shape="106.56,778.94 106.76,781.11 107.60,782.64 109.10,783.56 111.26,783.84"/>
    </edge>
    <edge id=":J1_0_12" function="internal">
        <lane id=":J1_0_12_0" index="0" speed="13.90" length="18.94" width="1.80" shape="106.56,778.94 106.05,797.83"/>
        <lane id=":J1_0_12_1" index="1" speed="13.90" length="18.94" width="1.80" shape="104.76,778.85 104.25,797.83"/>
    </edge>
    <edge id=":J1_0_14" function="internal">
        <lane id=":J1_0_14_0" index="0" speed="8.40" length="7.13" width="1.80" shape="104.76,778.85 103.99,783.43 102.82,785.61"/>
    </edge>
    <edge id=":J1_0_15" function="internal">
        <lane id=":J1_0_15_0" index="0" speed="2.74" length="2.19" width="1.80" shape="104.76,778.85 104.28,779.50 103.82,779.70 103.38,779.45 103.19,779.13"/>
    </edge>
    <edge id=":J1_0_26" function="internal">
        <lane id=":J1_0_26_0" index="0" speed="8.40" length="8.41" width="1.80" shape="102.82,785.61 102.23,786.71 99.48,788.67 95.75,789.33"/>
    </edge>
    <edge id=":J1_0_27" function="internal">
        <lane id=":J1_0_27_0" index="0" speed="2.74" length="0.44" width="1.80" shape="103.19,779.13 102.97,778.75"/>
    </edge>
    <edge id=":J1_0_16" function="internal">
        <lane id=":J1_0_16_0" index="0" speed="6.31" length="8.53" width="1.80" shape="95.75,783.93 98.02,783.60 99.67,782.61 100.73,780.96 101.17,778.65"/>
    </edge>
    <edge id=":J1_0_17" function="internal">
        <lane id=":J1_0_17_0" index="0" speed="15.50" length="15.53" width="1.80" shape="95.75,783.93 111.26,783.84"/>
        <lane id=":J1_0_17_1" index="1" speed="15.50" length="15.53" width="1.80" shape="95.75,785.73 111.28,785.64"/>
        <lane id=":J1_0_17_2" index="2" speed="15.50" length="15.53" width="1.80" shape="95.75,787.53 111.30,787.44"/>
    </edge>
    <edge id=":J1_0_20" function="internal">
        <lane id=":J1_0_20_0" index="0" speed="8.14" length="5.57" width="1.80" shape="95.75,787.53 99.47,788.17 100.92,789.23"/>
    </edge>
    <edge id=":J1_0_21" function="internal">
        <lane id=":J1_0_21_0" index="0" speed="2.74" length="2.23" width="1.80" shape="95.75,787.53 96.42,787.98 96.65,788.43 96.42,788.88 96.08,789.11"/>
    </edge>
    <edge id=":J1_0_28" function="internal">
        <lane id=":J1_0_28_0" index="0" speed="8.14" length="9.62" width="1.80" shape="100.92,789.23 102.12,790.11 103.72,793.32 104.25,797.83"/>
    </edge>
    <edge id=":J1_0_29" function="internal">
        <lane id=":J1_0_29_0" index="0" speed="2.74" length="0.40" width="1.80" shape="96.08,789.11 95.75,789.33"/>
    </edge>
    <edge id=":J1_1_0" function="internal">
        <lane id=":J1_1_0_0" index="0" speed="5.95" length="7.89" width="1.80" shape="769.35,790.43 769.04,788.29 768.12,786.76 766.59,785.86 764.44,785.57"/>
    </edge>
    <edge id=":J1_1_1" function="internal">
        <lane id=":J1_1_1_0" index="0" speed="15.50" length="18.97" width="1.80" shape="769.35,790.43 769.48,771.43"/>
        <lane id=":J1_1_1_1" index="1" speed="15.50" length="18.97" width="1.80" shape="771.15,790.43 771.28,771.46"/>
        <lane id=":J1_1_1_2" index="2" speed="15.50" length="18.97" width="1.80" shape="772.95,790.43 773.08,771.48"/>
    </edge>
    <edge id=":J1_1_4" function="internal">
        <lane id=":J1_1_4_0" index="0" speed="8.53" length="6.78" width="1.80" shape="772.95,790.43 773.60,785.90 774.73,784.01"/>
    </edge>
    <edge id=":J1_1_5" function="internal">
        <lane id=":J1_1_5_0" index="0" speed="2.74" length="2.26" width="1.80" shape="772.95,790.43 773.40,789.76 773.85,789.53 774.30,789.76 774.54,790.12"/>
    </edge>
    <edge id=":J1_1_24" function="internal">
        <lane id=":J1_1_24_0" index="0" speed="8.53" length="9.94" width="1.80" shape="774.73,784.01 775.54,782.66 778.79,780.72 783.32,780.07"/>
    </edge>
    <edge id=":J1_1_25" function="internal">
        <lane id=":J1_1_25_0" index="0" speed="2.74" length="0.37" width="1.80" shape="774.54,790.12 774.75,790.43"/>
    </edge>
    <edge id=":J1_1_6" function="internal">
        <lane id=":J1_1_6_0" index="0" speed="6.01" length="8.01" width="1.80" shape="783.32,785.47 781.15,785.78 779.59,786.71 778.66,788.26 778.35,790.43"/>
    </edge>
    <edge id=":J1_1_7" function="internal">
        <lane id=":J1_1_7_0" index="0" speed="15.50" length="18.90" width="1.80" shape="783.32,785.47 764.44,785.57"/>
        <lane id=":J1_1_7_1" index="1" speed="15.50" length="18.90" width="1.80" shape="783.32,783.67 764.42,783.78"/>
        <lane id=":J1_1_7_2" index="2" speed="15.50" length="18.90" width="1.80" shape="783.32,781.87 764.40,781.98"/>
    </edge>
    <edge id=":J1_1_10" function="internal">
        <lane id=":J1_1_10_0" index="0" speed="8.48" length="6.62" width="1.80" shape="783.32,781.87 778.79,781.22 777.04,780.16"/>
    </edge>
    <edge id=":J1_1_11" function="internal">
        <lane id=":J1_1_11_0" index="0" speed="2.74" length="2.23" width="1.80" shape="783.32,781.87 782.65,781.42 782.42,780.97 782.65,780.52 782.99,780.29"/>
    </edge>
    <edge id=":J1_1_26" function="internal">
        <lane id=":J1_1_26_0" index="0" speed="8.48" length="10.06" width="1.80" shape="777.04,780.16 775.57,779.27 773.67,776.03 773.08,771.48"/>
    </edge>
    <edge id=":J1_1_27" function="internal">
        <lane id=":J1_1_27_0" index="0" speed="2.74" length="0.40" width="1.80" shape="782.99,780.29 783.32,780.07"/>
    </edge>
    <edge id=":J1_1_12" function="internal">
        <lane id=":J1_1_12_0" index="0" speed="5.94" length="7.89" width="1.80" shape="778.48,771.56 778.76,773.71 779.66,775.24 781.18,776.16 783.32,776.47"/>
    </edge>
    <edge id=":J1_1_13" function="internal">
        <lane id=":J1_1_13_0" index="0" speed="15.50" length="18.90" width="1.80" shape="778.48,771.56 778.35,790.43"/>
        <lane id=":J1_1_13_1" index="1" speed="15.50" length="18.90" width="1.80" shape="776.68,771.53 776.55,790.43"/>
        <lane id=":J1_1_13_2" index="2" speed="15.50" length="18.90" width="1.80" shape="774.88,771.51 774.75,790.43"/>
    </edge>
    <edge id=":J1_1_16" function="internal">
        <lane id=":J1_1_16_0" index="0" speed="8.63" length="6.67" width="1.80" shape="774.88,771.51 774.17,776.04 773.09,777.82"/>
    </edge>
    <edge id=":J1_1_17" function="internal">
        <lane id=":J1_1_17_0" index="0" speed="2.74" length="2.23" width="1.80" shape="774.88,771.51 774.42,772.18 773.97,772.40 773.52,772.17 773.30,771.82"/>
    </edge>
    <edge id=":J1_1_28" function="internal">
        <lane id=":J1_1_28_0" index="0" speed="8.63" length="10.13" width="1.80" shape="773.09,777.82 772.19,779.30 768.93,781.28 764.40,781.98"/>
    </edge>
    <edge id=":J1_1_29" function="internal">
        <lane id=":J1_1_29_0" index="0" speed="2.74" length="0.40" width="1.80" shape="773.30,771.82 773.08,771.48"/>
    </edge>
    <edge id=":J1_1_18" function="internal">
        <lane id=":J1_1_18_0" index="0" speed="6.15" length="8.25" width="1.80" shape="764.34,776.58 766.56,776.23 768.16,775.26 769.13,773.66 769.48,771.43"/>
    </edge>
    <edge id=":J1_1_19" function="internal">
        <lane id=":J1_1_19_0" index="0" speed="15.50" length="18.96" width="1.80" shape="764.34,776.58 783.32,776.47"/>
        <lane id=":J1_1_19_1" index="1" speed="15.50" length="18.96" width="1.80" shape="764.36,778.38 783.32,778.27"/>
        <lane id=":J1_1_19_2" index="2" speed="15.50" length="18.96" width="1.80" shape="764.38,780.18 783.32,780.07"/>
    </edge>
    <edge id=":J1_1_22" function="internal">
        <lane id=":J1_1_22_0" index="0" speed="8.48" length="6.76" width="1.80" shape="764.38,780.18 768.92,780.77 770.80,781.88"/>
    </edge>
    <edge id=":J1_1_23" function="internal">
        <lane id=":J1_1_23_0" index="0" speed="2.74" length="2.25" width="1.80" shape="764.38,780.18 765.06,780.62 765.29,781.07 765.07,781.52 764.71,781.76"/>
    </edge>
    <edge id=":J1_1_30" function="internal">
        <lane id=":J1_1_30_0" index="0" speed="8.48" length="9.92" width="1.80" shape="770.80,781.88 772.16,782.68 774.10,785.90 774.75,790.43"/>
    </edge>
    <edge id=":J1_1_31" function="internal">
        <lane id=":J1_1_31_0" index="0" speed="2.74" length="0.37" width="1.80" shape="764.71,781.76 764.40,781.98"/>
    </edge>
    <edge id=":N0_0" function="internal">
        <lane id=":N0_0_0" index="0" speed="2.74" length="2.63" width="1.80" shape="139.10,0.00 139.55,-0.68 140.00,-0.90 140.45,-0.68 140.90,0.00"/>
    </edge>
    <edge id=":N1_0" function="internal">
        <lane id=":N1_0_0" index="0" speed="2.74" length="2.63" width="1.80" shape="782.20,0.00 782.65,-0.67 783.10,-0.90 783.55,-0.67 784.00,0.00"/>
    </edge>
    <edge id=":S0_0" function="internal">
        <lane id=":S0_0_0" index="0" speed="2.74" length="2.63" width="1.80" shape="104.25,900.00 103.80,900.67 103.35,900.90 102.90,900.67 102.45,900.00"/>
    </edge>
    <edge id=":S1_0" function="internal">
        <lane id=":S1_0_0" index="0" speed="2.74" length="2.63" width="1.80" shape="774.75,900.00 774.30,900.67 773.85,900.90 773.40,900.67 772.95,900.00"/>
    </edge>
    <edge id=":W0_0" function="internal">
        <lane id=":W0_0_0" index="0" speed="2.74" length="2.63" width="1.80" shape="0.00,105.48 -0.68,105.03 -0.90,104.58 -0.68,104.13 0.00,103.68"/>
    </edge>
    <edge id=":W1_0" function="internal">
        <lane id=":W1_0_0" index="0" speed="2.74" length="2.63" width="1.80" shape="0.00,789.33 -0.67,788.88 -0.90,788.43 -0.67,787.98 0.00,787.53"/>
    </edge>

    <edge id="E0_to_J0_1" from="E0" to="J0_1" priority="-1">
        <lane id="E0_to_J0_1_0" index="0" speed="13.90" length="107.50" width="1.80" shape="900.00,109.63 792.50,109.63"/>
        <lane id="E0_to_J0_1_1" index="1" speed="13.90" length="107.50" width="1.80" shape="900.00,107.83 792.50,107.83"/>
    </edge>
    <edge id="E1_to_J1_1" from="E1" to="J1_1" priority="-1">
        <lane id="E1_to_J1_1_0" index="0" speed="15.50" length="116.68" width="1.80" shape="900.00,785.47 783.32,785.47"/>
        <lane id="E1_to_J1_1_1" index="1" speed="15.50" length="116.68" width="1.80" shape="900.00,783.67 783.32,783.67"/>
        <lane id="E1_to_J1_1_2" index="2" speed="15.50" length="116.68" width="1.80" shape="900.00,781.87 783.32,781.87"/>
    </edge>
    <edge id="J0_0_to_J0_1" from="J0_0" to="J0_1" priority="-1">
        <lane id="J0_0_to_J0_1_0" index="0" speed="13.90" length="626.08" width="1.80" shape="147.60,101.91 773.67,104.20"/>
        <lane id="J0_0_to_J0_1_1" index="1" speed="13.90" length="626.08" width="1.80" shape="147.59,103.71 773.67,106.00"/>
    </edge>
    <edge id="J0_0_to_J1_0" from="J0_0" to="J1_0" priority="-1">
        <lane id="J0_0_to_J1_0_0" index="0" speed="13.90" length="667.39" width="1.80" shape="142.28,112.51 106.56,778.94"/>
        <lane id="J0_0_to_J1_0_1" index="1" speed="13.90" length="667.39" width="1.80" shape="140.48,112.42 104.76,778.85"/>
    </edge>
    <edge id="J0_0_to_N0" from="J0_0" to="N0" priority="-1">
        <lane id="J0_0_to_N0_0" index="0" speed="13.90" length="96.98" width="1.80" shape="137.30,96.98 137.30,0.00"/>
        <lane id="J0_0_to_N0_1" index="1" speed="13.90" length="96.98" width="1.80" shape="139.10,96.98 139.10,0.00"/>
    </edge>
    <edge id="J0_0_to_W0" from="J0_0" to="W0" priority="-1">
        <lane id="J0_0_to_W0_0" index="0" speed="13.90" length="132.20" width="1.80" shape="132.20,107.28 0.00,107.28"/>
        <lane id="J0_0_to_W0_1" index="1" speed="13.90" length="132.20" width="1.80" shape="132.20,105.48 0.00,105.48"/>
    </edge>
    <edge id="J0_1_to_E0" from="J0_1" to="E0" priority="-1">
        <lane id="J0_1_to_E0_0" index="0" speed="13.90" length="107.50" width="1.80" shape="792.50,104.23 900.00,104.23"/>
        <lane id="J0_1_to_E0_1" index="1" speed="13.90" length="107.50" width="1.80" shape="792.50,106.03 900.00,106.03"/>
    </edge>
    <edge id="J0_1_to_J0_0" from="J0_1" to="J0_0" priority="-1">
        <lane id="J0_1_to_J0_0_0" index="0" speed="13.90" length="626.08" width="1.80" shape="773.65,109.60 147.58,107.31"/>
        <lane id="J0_1_to_J0_0_1" index="1" speed="13.90" length="626.08" width="1.80" shape="773.66,107.80 147.58,105.51"/>
    </edge>
    <edge id="J0_1_to_J1_1" from="J0_1" to="J1_1" priority="-1">
        <lane id="J0_1_to_J1_1_0" index="0" speed="15.50" length="656.97" width="1.80" shape="787.49,114.65 778.48,771.56"/>
        <lane id="J0_1_to_J1_1_1" index="1" speed="15.50" length="656.97" width="1.80" shape="785.69,114.62 776.68,771.53"/>
        <lane id="J0_1_to_J1_1_2" index="2" speed="15.50" length="656.97" width="1.80" shape="783.89,114.60 774.88,771.51"/>
    </edge>
    <edge id="J0_1_to_N1" from="J0_1" to="N1" priority="-1">
        <lane id="J0_1_to_N1_0" index="0" speed="15.50" length="99.31" width="1.80" shape="778.60,99.31 778.60,0.00"/>
        <lane id="J0_1_to_N1_1" index="1" speed="15.50" length="99.31" width="1.80" shape="780.40,99.31 780.40,0.00"/>
        <lane id="J0_1_to_N1_2" index="2" speed="15.50" length="99.31" width="1.80" shape="782.20,99.31 782.20,0.00"/>
    </edge>
    <edge id="J1_0_to_J0_0" from="J1_0" to="J0_0" priority="-1">
        <lane id="J1_0_to_J0_0_0" index="0" speed="13.90" length="667.39" width="1.80" shape="101.17,778.65 136.89,112.22"/>
        <lane id="J1_0_to_J0_0_1" index="1" speed="13.90" length="667.39" width="1.80" shape="102.97,778.75 138.68,112.32"/>
    </edge>
    <edge id="J1_0_to_J1_1" from="J1_0" to="J1_1" priority="-1">
        <lane id="J1_0_to_J1_1_0" index="0" speed="15.50" length="653.12" width="1.80" shape="111.26,783.84 764.34,776.58"/>
        <lane id="J1_0_to_J1_1_1" index="1" speed="15.50" length="653.12" width="1.80" shape="111.28,785.64 764.36,778.38"/>
        <lane id="J1_0_to_J1_1_2" index="2" speed="15.50" length="653.12" width="1.80" shape="111.30,787.44 764.38,780.18"/>
    </edge>
    <edge id="J1_0_to_S0" from="J1_0" to="S0" priority="-1">
        <lane id="J1_0_to_S0_0" index="0" speed="13.90" length="102.17" width="1.80" shape="106.05,797.83 106.05,900.00"/>
        <lane id="J1_0_to_S0_1" index="1" speed="13.90" length="102.17" width="1.80" shape="104.25,797.83 104.25,900.00"/>
    </edge>
    <edge id="J1_0_to_W1" from="J1_0" to="W1" priority="-1">
        <lane id="J1_0_to_W1_0" index="0" speed="15.50" length="95.75" width="1.80" shape="95.75,792.93 0.00,792.93"/>
        <lane id="J1_0_to_W1_1" index="1" speed="15.50" length="95.75" width="1.80" shape="95.75,791.13 0.00,791.13"/>
        <lane id="J1_0_to_W1_2" index="2" speed="15.50" length="95.75" width="1.80" shape="95.75,789.33 0.00,789.33"/>
    </edge>
    <edge id="J1_1_to_E1" from="J1_1" to="E1" priority="-1">
        <lane id="J1_1_to_E1_0" index="0" speed="15.50" length="116.68" width="1.80" shape="783.32,776.47 900.00,776.47"/>
        <lane id="J1_1_to_E1_1" index="1" speed="15.50" length="116.68" width="1.80" shape="783.32,778.27 900.00,778.27"/>