<nodes>
    <node id="P0" x="490.0" y="360.0" type="traffic_light"/>
    <node id="P3" x="490.0" y="180.0" type="priority"/>
    <node id="P2" x="670.0" y="360.0" type="priority"/>
    <node id="P4" x="490.0" y="540.0" type="priority"/>
    <node id="P1" x="310.0" y="360.0" type="priority"/>
</nodes>