<?xml version="1.0" encoding="UTF-8"?>

<!-- generated on 2026-04-12T18:14:54.145550+05:30 by Eclipse SUMO netconvert 1.26.0
<netconvertConfiguration xmlns:xsi="http://www.w3.org/2001/XMLSchema-instance" xsi:noNamespaceSchemaLocation="http://sumo.dlr.de/xsd/netconvertConfiguration.xsd">

    <input>
        <node-files value="C:\Users\santhosh\OneDrive\Desktop\trafiic pro\web_runs\20260412_181453_649839\area.nod.xml"/>
        <edge-files value="C:\Users\santhosh\OneDrive\Desktop\trafiic pro\web_runs\20260412_181453_649839\area.edg.xml"/>
    </input>

    <output>
        <output-file value="C:\Users\santhosh\OneDrive\Desktop\trafiic pro\web_runs\20260412_181453_649839\area.net.xml"/>
    </output>

    <building_defaults>
        <default.lanewidth value="1.5"/>
    </building_defaults>

    <junctions>
        <junctions.corner-detail value="0"/>
    </junctions>

</netconvertConfiguration>
-->

<net version="1.20" limitTurnSpeed="5.50" xmlns:xsi="http://www.w3.org/2001/XMLSchema-instance" xsi:noNamespaceSchemaLocation="http://sumo.dlr.de/xsd/net_file.xsd">

    <location netOffset="-310.00,-180.00" convBoundary="0.00,0.00,360.00,360.00" origBoundary="310.00,180.00,670.00,540.00" projParameter="!"/>

    <edge id=":P0_0" function="internal">
        <lane id=":P0_0_0" index="0" speed="5.85" length="7.66" width="1.50" shape="179.25,185.50 178.95,183.42 178.06,181.94 176.58,181.05 174.50,180.75"/>
    </edge>
    <edge id=":P0_1" function="internal">
        <lane id=":P0_1_0" index="0" speed="13.90" length="11.00" width="1.50" shape="179.25,185.50 179.25,174.50"/>
    </edge>
    <edge id=":P0_2" function="internal">
        <lane id=":P0_2_0" index="0" speed="6.66" length="4.71" width="1.50" shape="179.25,185.50 179.64,182.77 180.64,181.09"/>
    </edge>
    <edge id=":P0_3" function="internal">
        <lane id=":P0_3_0" index="0" speed="2.50" length="1.87" width="1.50" shape="179.25,185.50 179.62,184.94 180.00,184.75 180.38,184.94 180.57,185.23"/>
    </edge>
    <edge id=":P0_16" function="internal">
        <lane id=":P0_16_0" index="0" speed="6.66" length="5.37" width="1.50" shape="180.64,181.09 180.81,180.81 182.77,179.64 185.50,179.25"/>
    </edge>
    <edge id=":P0_17" function="internal">
        <lane id=":P0_17_0" index="0" speed="2.50" length="0.32" width="1.50" shape="180.57,185.23 180.75,185.50"/>
    </edge>
    <edge id=":P0_4" function="internal">
        <lane id=":P0_4_0" index="0" speed="5.85" length="7.66" width="1.50" shape="185.50,180.75 183.42,181.05 181.94,181.94 181.05,183.42 180.75,185.50"/>
    </edge>
    <edge id=":P0_5" function="internal">
        <lane id=":P0_5_0" index="0" speed="13.90" length="11.00" width="1.50" shape="185.50,180.75 174.50,180.75"/>
    </edge>
    <edge id=":P0_6" function="internal">
        <lane id=":P0_6_0" index="0" speed="6.66" length="4.71" width="1.50" shape="185.50,180.75 182.77,180.36 181.09,179.36"/>
    </edge>
    <edge id=":P0_7" function="internal">
        <lane id=":P0_7_0" index="0" speed="2.50" length="1.87" width="1.50" shape="185.50,180.75 184.94,180.38 184.75,180.00 184.94,179.62 185.23,179.43"/>
    </edge>
    <edge id=":P0_18" function="internal">
        <lane id=":P0_18_0" index="0" speed="6.66" length="5.37" width="1.50" shape="181.09,179.36 180.81,179.19 179.64,177.23 179.25,174.50"/>
    </edge>
    <edge id=":P0_19" function="internal">
        <lane id=":P0_19_0" index="0" speed="2.50" length="0.32" width="1.50" shape="185.23,179.43 185.50,179.25"/>
    </edge>
    <edge id=":P0_8" function="internal">
        <lane id=":P0_8_0" index="0" speed="5.85" length="7.66" width="1.50" shape="180.75,174.50 181.05,176.58 181.94,178.06 183.42,178.95 185.50,179.25"/>
    </edge>
    <edge id=":P0_9" function="internal">
        <lane id=":P0_9_0" index="0" speed="13.90" length="11.00" width="1.50" shape="180.75,174.50 180.75,185.50"/>
    </edge>
    <edge id=":P0_10" function="internal">
        <lane id=":P0_10_0" index="0" speed="6.66" length="4.71" width="1.50" shape="180.75,174.50 180.36,177.23 179.36,178.91"/>
    </edge>
    <edge id=":P0_11" function="internal">
        <lane id=":P0_11_0" index="0" speed="2.50" length="1.87" width="1.50" shape="180.75,174.50 180.38,175.06 180.00,175.25 179.62,175.06 179.43,174.77"/>
    </edge>
    <edge id=":P0_20" function="internal">
        <lane id=":P0_20_0" index="0" speed="6.66" length="5.37" width="1.50" shape="179.36,178.91 179.19,179.19 177.23,180.36 174.50,180.75"/>
    </edge>
    <edge id=":P0_21" function="internal">
        <lane id=":P0_21_0" index="0" speed="2.50" length="0.32" width="1.50" shape="179.43,174.77 179.25,174.50"/>
    </edge>
    <edge id=":P0_12" function="internal">
        <lane id=":P0_12_0" index="0" speed="5.85" length="7.66" width="1.50" shape="174.50,179.25 176.58,178.95 178.06,178.06 178.95,176.58 179.25,174.50"/>
    </edge>
    <edge id=":P0_13" function="internal">
        <lane id=":P0_13_0" index="0" speed="13.90" length="11.00" width="1.50" shape="174.50,179.25 185.50,179.25"/>
    </edge>
    <edge id=":P0_14" function="internal">
        <lane id=":P0_14_0" index="0" speed="6.66" length="4.71" width="1.50" shape="174.50,179.25 177.23,179.64 178.91,180.64"/>
    </edge>
    <edge id=":P0_15" function="internal">
        <lane id=":P0_15_0" index="0" speed="2.50" length="1.87" width="1.50" shape="174.50,179.25 175.06,179.62 175.25,180.00 175.06,180.38 174.77,180.57"/>
    </edge>
    <edge id=":P0_22" function="internal">
        <lane id=":P0_22_0" index="0" speed="6.66" length="5.37" width="1.50" shape="178.91,180.64 179.19,180.81 180.36,182.77 180.75,185.50"/>
    </edge>
    <edge id=":P0_23" function="internal">
        <lane id=":P0_23_0" index="0" speed="2.50" length="0.32" width="1.50" shape="174.77,180.57 174.50,180.75"/>
    </edge>
    <edge id=":P1_0" function="internal">
        <lane id=":P1_0_0" index="0" speed="2.50" length="2.19" width="1.50" shape="0.00,180.75 -0.56,180.38 -0.75,180.00 -0.56,179.62 0.00,179.25"/>
    </edge>
    <edge id=":P2_0" function="internal">
        <lane id=":P2_0_0" index="0" speed="2.50" length="2.19" width="1.50" shape="360.00,179.25 360.56,179.62 360.75,180.00 360.56,180.38 360.00,180.75"/>
    </edge>
    <edge id=":P3_0" function="internal">
        <lane id=":P3_0_0" index="0" speed="2.50" length="2.19" width="1.50" shape="179.25,0.00 179.62,-0.56 180.00,-0.75 180.38,-0.56 180.75,0.00"/>
    </edge>
    <edge id=":P4_0" function="internal">
        <lane id=":P4_0_0" index="0" speed="2.50" length="2.19" width="1.50" shape="180.75,360.00 180.38,360.56 180.00,360.75 179.62,360.56 179.25,360.00"/>
    </edge>

    <edge id="E0_P0_P1" from="P0" to="P1" priority="-1">
        <lane id="E0_P0_P1_0" index="0" speed="13.90" length="174.50" width="1.50" shape="174.50,180.75 0.00,180.75"/>
    </edge>
    <edge id="E0_P1_P0" from="P1" to="P0" priority="-1">
        <lane id="E0_P1_P0_0" index="0" speed="13.90" length="174.50" width="1.50" shape="0.00,179.25 174.50,179.25"/>
    </edge>
    <edge id="E1_P0_P2" from="P0" to="P2" priority="-1">
        <lane id="E1_P0_P2_0" index="0" speed="13.90" length="174.50" width="1.50" shape="185.50,179.25 360.00,179.25"/>
    </edge>
    <edge id="E1_P2_P0" from="P2" to="P0" priority="-1">
        <lane id="E1_P2_P0_0" index="0" speed="13.90" length="174.50" width="1.50" shape="360.00,180.75 185.50,180.75"/>
    </edge>
    <edge id="E2_P0_P3" from="P0" to="P3" priority="-1">
        <lane id="E2_P0_P3_0" index="0" speed="13.90" length="174.50" width="1.50" shape="179.25,174.50 179.25,0.00"/>
    </edge>
    <edge id="E2_P3_P0" from="P3" to="P0" priority="-1">
        <lane id="E2_P3_P0_0" index="0" speed="13.90" length="174.50" width="1.50" shape="180.75,0.00 180.75,174.50"/>
    </edge>
    <edge id="E3_P0_P4" from="P0" to="P4" priority="-1">
        <lane id="E3_P0_P4_0" index="0" speed="13.90" length="174.50" width="1.50" shape="180.75,185.50 180.75,360.00"/>
    </edge>
    <edge id="E3_P4_P0" from="P4" to="P0" priority="-1">
        <lane id="E3_P4_P0_0" index="0" speed="13.90" length="174.50" width="1.50" shape="179.25,360.00 179.25,185.50"/>
    </edge>

    <tlLogic id="P0" type="static" programID="0" offset="0">
        <phase duration="42" state="GGggrrrrGGggrrrr"/>
        <phase duration="3"  state="yyyyrrrryyyyrrrr"/>
        <phase duration="42" state="rrrrGGggrrrrGGgg"/>
        <phase duration="3"  state="rrrryyyyrrrryyyy"/>
    </tlLogic>

    <junction id="P0" type="traffic_light" x="180.00" y="180.00" incLanes="E3_P4_P0_0 E1_P2_P0_0 E2_P3_P0_0 E0_P1_P0_0" intLanes=":P0_0_0 :P0_1_0 :P0_16_0 :P0_17_0 :P0_4_0 :P0_5_0 :P0_18_0 :P0_19_0 :P0_8_0 :P0_9_0 :P0_20_0 :P0_21_0 :P0_12_0 :P0_13_0 :P0_22_0 :P0_23_0" shape="178.50,185.50 181.50,185.50 185.50,181.50 185.50,178.50 181.50,174.50 178.50,174.50 174.50,178.50 174.50,181.50">
        <request index="0"  response="0000000000000000" foes="1000010000100000" cont="0"/>
        <request index="1"  response="0100000001000000" foes="0111110001100000" cont="0"/>
        <request index="2"  response="0100001101000000" foes="0110001111100000" cont="1"/>
        <request index="3"  response="0100001000010000" foes="0100001000010000" cont="1"/>
        <request index="4"  response="0000001000000000" foes="0100001000001000" cont="0"/>
        <request index="5"  response="0000011000000111" foes="1100011000000111" cont="0"/>
        <request index="6"  response="0011011000000110" foes="0011111000000110" cont="1"/>
        <request index="7"  response="0010000100000100" foes="0010000100000100" cont="1"/>
        <request index="8"  response="0000000000000000" foes="0010000010000100" cont="0"/>
        <request index="9"  response="0100000001000000" foes="0110000001111100" cont="0"/>
        <request index="10" response="0100000001000011" foes="1110000001100011" cont="1"/>
        <request index="11" response="0001000001000010" foes="0001000001000010" cont="1"/>
        <request index="12" response="0000000000000010" foes="0000100001000010" cont="0"/>
        <request index="13" response="0000011100000110" foes="0000011111000110" cont="0"/>
        <request index="14" response="0000011000110110" foes="0000011000111110" cont="1"/>
        <request index="15" response="0000010000100001" foes="0000010000100001" cont="1"/>
    </junction>
    <junction id="P1" type="priority" x="0.00" y="180.00" incLanes="E0_P0_P1_0" intLanes=":P1_0_0" shape="0.00,180.00 0.00,181.50 0.00,180.00">
        <request index="0" response="0" foes="0" cont="0"/>
    </junction>
    <junction id="P2" type="priority" x="360.00" y="180.00" incLanes="E1_P0_P2_0" intLanes=":P2_0_0" shape="360.00,180.00 360.00,178.50 360.00,180.00">
        <request index="0" response="0" foes="0" cont="0"/>
    </junction>
    <junction id="P3" type="priority" x="180.00" y="0.00" incLanes="E2_P0_P3_0" intLanes=":P3_0_0" shape="180.00,0.00 178.50,0.00 180.00,0.00">
        <request index="0" response="0" foes="0" cont="0"/>
    </junction>
    <junction id="P4" type="priority" x="180.00" y="360.00" incLanes="E3_P0_P4_0" intLanes=":P4_0_0" shape="180.00,360.00 181.50,360.00 180.00,360.00">
        <request index="0" response="0" foes="0" cont="0"/>
    </junction>

    <junction id=":P0_16_0" type="internal" x="180.64" y="181.09" incLanes=":P0_2_0 E2_P3_P0_0" intLanes=":P0_5_0 :P0_6_0 :P0_7_0 :P0_8_0 :P0_9_0 :P0_13_0 :P0_14_0"/>
    <junction id=":P0_17_0" type="internal" x="180.57" y="185.23" incLanes=":P0_3_0 E0_P1_P0_0 E1_P2_P0_0 E2_P3_P0_0" intLanes=":P0_4_0 :P0_9_0 :P0_14_0"/>
    <junction id=":P0_18_0" type="internal" x="181.09" y="179.36" incLanes=":P0_6_0 E0_P1_P0_0" intLanes=":P0_1_0 :P0_2_0 :P0_9_0 :P0_10_0 :P0_11_0 :P0_12_0 :P0_13_0"/>
    <junction id=":P0_19_0" type="internal" x="185.23" y="179.43" incLanes=":P0_7_0 E0_P1_P0_0 E2_P3_P0_0 E3_P4_P0_0" intLanes=":P0_2_0 :P0_8_0 :P0_13_0"/>
    <junction id=":P0_20_0" type="internal" x="179.36" y="178.91" incLanes=":P0_10_0 E3_P4_P0_0" intLanes=":P0_0_0 :P0_1_0 :P0_5_0 :P0_6_0 :P0_13_0 :P0_14_0 :P0_15_0"/>
    <junction id=":P0_21_0" type="internal" x="179.43" y="174.77" incLanes=":P0_11_0 E0_P1_P0_0 E1_P2_P0_0 E3_P4_P0_0" intLanes=":P0_1_0 :P0_6_0 :P0_12_0"/>
    <junction id=":P0_22_0" type="internal" x="178.91" y="180.64" incLanes=":P0_14_0 E1_P2_P0_0" intLanes=":P0_1_0 :P0_2_0 :P0_3_0 :P0_4_0 :P0_5_0 :P0_9_0 :P0_10_0"/>
    <junction id=":P0_23_0" type="internal" x="174.77" y="180.57" incLanes=":P0_15_0 E1_P2_P0_0 E2_P3_P0_0 E3_P4_P0_0" intLanes=":P0_0_0 :P0_5_0 :P0_10_0"/>

    <connection from="E0_P0_P1" to="E0_P1_P0" fromLane="0" toLane="0" via=":P1_0_0" dir="t" state="M"/>
    <connection from="E0_P1_P0" to="E2_P0_P3" fromLane="0" toLane="0" via=":P0_12_0" tl="P0" linkIndex="12" dir="r" state="o"/>
    <connection from="E0_P1_P0" to="E1_P0_P2" fromLane="0" toLane="0" via=":P0_13_0" tl="P0" linkIndex="13" dir="s" state="o"/>
    <connection from="E0_P1_P0" to="E3_P0_P4" fromLane="0" toLane="0" via=":P0_14_0" tl="P0" linkIndex="14" dir="l" state="o"/>
    <connection from="E0_P1_P0" to="E0_P0_P1" fromLane="0" toLane="0" via=":P0_15_0" tl="P0" linkIndex="15" dir="t" state="o"/>
    <connection from="E1_P0_P2" to="E1_P2_P0" fromLane="0" toLane="0" via=":P2_0_0" dir="t" state="M"/>
    <connection from="E1_P2_P0" to="E3_P0_P4" fromLane="0" toLane="0" via=":P0_4_0" tl="P0" linkIndex="4" dir="r" state="o"/>
    <connection from="E1_P2_P0" to="E0_P0_P1" fromLane="0" toLane="0" via=":P0_5_0" tl="P0" linkIndex="5" dir="s" state="o"/>
    <connection from="E1_P2_P0" to="E2_P0_P3" fromLane="0" toLane="0" via=":P0_6_0" tl="P0" linkIndex="6" dir="l" state="o"/>
    <connection from="E1_P2_P0" to="E1_P0_P2" fromLane="0" toLane="0" via=":P0_7_0" tl="P0" linkIndex="7" dir="t" state="o"/>
    <connection from="E2_P0_P3" to="E2_P3_P0" fromLane="0" toLane="0" via=":P3_0_0" dir="t" state="M"/>
    <connection from="E2_P3_P0" to="E1_P0_P2" fromLane="0" toLane="0" via=":P0_8_0" tl="P0" linkIndex="8" dir="r" state="O"/>
    <connection from="E2_P3_P0" to="E3_P0_P4" fromLane="0" toLane="0" via=":P0_9_0" tl="P0" linkIndex="9" dir="s" state="O"/>
    <connection from="E2_P3_P0" to="E0_P0_P1" fromLane="0" toLane="0" via=":P0_10_0" tl="P0" linkIndex="10" dir="l" state="o"/>
    <connection from="E2_P3_P0" to="E2_P0_P3" fromLane="0" toLane="0" via=":P0_11_0" tl="P0" linkIndex="11" dir="t" state="o"/>
    <connection from="E3_P0_P4" to="E3_P4_P0" fromLane="0" toLane="0" via=":P4_0_0" dir="t" state="M"/>
    <connection from="E3_P4_P0" to="E0_P0_P1" fromLane="0" toLane="0" via=":P0_0_0" tl="P0" linkIndex="0" dir="r" state="O"/>
    <connection from="E3_P4_P0" to="E2_P0_P3" fromLane="0" toLane="0" via=":P0_1_0" tl="P0" linkIndex="1" dir="s" state="O"/>
    <connection from="E3_P4_P0" to="E1_P0_P2" fromLane="0" toLane="0" via=":P0_2_0" tl="P0" linkIndex="2" dir="l" state="o"/>
    <connection from="E3_P4_P0" to="E3_P0_P4" fromLane="0" toLane="0" via=":P0_3_0" tl="P0" linkIndex="3" dir="t" state="o"/>

    <connection from=":P0_0" to="E0_P0_P1" fromLane="0" toLane="0" dir="r" state="M"/>
    <connection from=":P0_1" to="E2_P0_P3" fromLane="0" toLane="0" dir="s" state="M"/>
    <connection from=":P0_2" to="E1_P0_P2" fromLane="0" toLane="0" via=":P0_16_0" dir="l" state="m"/>
    <connection from=":P0_16" to="E1_P0_P2" fromLane="0" toLane="0" dir="l" state="M"/>
    <connection from=":P0_3" to="E3_P0_P4" fromLane="0" toLane="0" via=":P0_17_0" dir="t" state="m"/>
    <connection from=":P0_17" to="E3_P0_P4" fromLane="0" toLane="0" dir="t" state="M"/>
    <connection from=":P0_4" to="E3_P0_P4" fromLane="0" toLane="0" dir="r" state="M"/>
    <connection from=":P0_5" to="E0_P0_P1" fromLane="0" toLane="0" dir="s" state="M"/>
    <connection from=":P0_6" to="E2_P0_P3" fromLane="0" toLane="0" via=":P0_18_0" dir="l" state="m"/>
    <connection from=":P0_18" to="E2_P0_P3" fromLane="0" toLane="0" dir="l" state="M"/>
    <connection from=":P0_7" to="E1_P0_P2" fromLane="0" toLane="0" via=":P0_19_0" dir="t" state="m"/>
    <connection from=":P0_19" to="E1_P0_P2" fromLane="0" toLane="0" dir="t" state="M"/>
    <connection from=":P0_8" to="E1_P0_P2" fromLane="0" toLane="0" dir="r" state="M"/>
    <connection from=":P0_9" to="E3_P0_P4" fromLane="0" toLane="0" dir="s" state="M"/>
    <connection from=":P0_10" to="E0_P0_P1" fromLane="0" toLane="0" via=":P0_20_0" dir="l" state="m"/>
    <connection from=":P0_20" to="E0_P0_P1" fromLane="0" toLane="0" dir="l" state="M"/>
    <connection from=":P0_11" to="E2_P0_P3" fromLane="0" toLane="0" via=":P0_21_0" dir="t" state="m"/>
    <connection from=":P0_21" to="E2_P0_P3" fromLane="0" toLane="0" dir="t" state="M"/>
    <connection from=":P0_12" to="E2_P0_P3" fromLane="0" toLane="0" dir="r" state="M"/>
    <connection from=":P0_13" to="E1_P0_P2" fromLane="0" toLane="0" dir="s" state="M"/>
    <connection from=":P0_14" to="E3_P0_P4" fromLane="0" toLane="0" via=":P0_22_0" dir="l" state="m"/>
    <connection from=":P0_22" to="E3_P0_P4" fromLane="0" toLane="0" dir="l" state="M"/>
    <connection from=":P0_15" to="E0_P0_P1" fromLane="0" toLane="0" via=":P0_23_0" dir="t" state="m"/>
    <connection from=":P0_23" to="E0_P0_P1" fromLane="0" toLane="0" dir="t" state="M"/>
    <connection from=":P1_0" to="E0_P1_P0" fromLane="0" toLane="0" dir="t" state="M"/>
    <connection from=":P2_0" to="E1_P2_P0" fromLane="0" toLane="0" dir="t" state="M"/>
    <connection from=":P3_0" to="E2_P3_P0" fromLane="0" toLane="0" dir="t" state="M"/>
    <connection from=":P4_0" to="E3_P4_P0" fromLane="0" toLane="0" dir="t" state="M"/>

</net>
