<edges>
    <edge id="E0_P1_P0" from="P1" to="P0" numLanes="1" speed="13.9" shape="310.0,360.0 490.0,360.0"/>
    <edge id="E0_P0_P1" from="P0" to="P1" numLanes="1" speed="13.9" shape="490.0,360.0 310.0,360.0"/>
    <edge id="E1_P0_P2" from="P0" to="P2" numLanes="1" speed="13.9" shape="490.0,360.0 670.0,360.0"/>
    <edge id="E1_P2_P0" from="P2" to="P0" numLanes="1" speed="13.9" shape="670.0,360.0 490.0,360.0"/>
    <edge id="E2_P3_P0" from="P3" to="P0" numLanes="1" speed="13.9" shape="490.0,180.0 490.0,360.0"/>
    <edge id="E2_P0_P3" from="P0" to="P3" numLanes="1" speed="13.9" shape="490.0,360.0 490.0,180.0"/>
    <edge id="E3_P0_P4" from="P0" to="P4" numLanes="1" speed="13.9" shape="490.0,360.0 490.0,540.0"/>
    <edge id="E3_P4_P0" from="P4" to="P0" numLanes="1" speed="13.9" shape="490.0,540.0 490.0,360.0"/>
</edges>