<routes>
    <vType id="passenger" accel="2.6" decel="4.5" sigma="0.5" length="5" maxSpeed="13.9"/>
    <vType id="emergency" accel="3.0" decel="5.0" sigma="0.2" length="5" maxSpeed="16.0" color="1,0,0"/>
    <route id="r0" edges="W0_to_J0_0 J0_0_to_J0_1 J0_1_to_J0_2 J0_2_to_E0"/>
    <route id="r1" edges="E0_to_J0_2 J0_2_to_J0_1 J0_1_to_J0_0 J0_0_to_W0"/>
    <route id="r2" edges="W1_to_J1_0 J1_0_to_J1_1 J1_1_to_J1_2 J1_2_to_E1"/>
    <route id="r3" edges="E1_to_J1_2 J1_2_to_J1_1 J1_1_to_J1_0 J1_0_to_W1"/>
    <route id="r4" edges="N0_to_J0_0 J0_0_to_J1_0 J1_0_to_S0"/>
    <route id="r5" edges="S0_to_J1_0 J1_0_to_J0_0 J0_0_to_N0"/>
    <route id="r6" edges="N1_to_J0_1 J0_1_to_J1_1 J1_1_to_S1"/>
    <route id="r7" edges="S1_to_J1_1 J1_1_to_J0_1 J0_1_to_N1"/>
    <route id="r8" edges="N2_to_J0_2 J0_2_to_J1_2 J1_2_to_S2"/>
    <route id="r9" edges="S2_to_J1_2 J1_2_to_J0_2 J0_2_to_N2"/>
    <vehicle id="veh0" type="passenger" route="r7" depart="0.0"/>
    <vehicle id="veh1" type="passenger" route="r7" depart="1.33"/>
    <vehicle id="veh2" type="passenger" route="r9" depart="2.67"/>
    <vehicle id="veh3" type="passenger" route="r8" depart="4.0"/>
    <vehicle id="veh4" type="passenger" route="r9" depart="5.33"/>
    <vehicle id="veh5" type="passenger" route="r1" depart="6.67"/>
    <vehicle id="veh6" type="passenger" route="r2" depart="8.0"/>
    <vehicle id="veh7" type="passenger" route="r0" depart="9.33"/>
    <vehicle id="veh8" type="passenger" route="r6" depart="10.67"/>
    <vehicle id="veh9" type="passenger" route="r9" depart="12.0"/>
    <vehicle id="veh10" type="emergency" route="r9" depart="13.33"/>
    <vehicle id="veh11" type="passenger" route="r8" depart="14.67"/>
    <vehicle id="veh12" type="passenger" route="r0" depart="16.0"/>
    <vehicle id="veh13" type="passenger" route="r3" depart="17.33"/>
    <vehicle id="veh14" type="passenger" route="r7" depart="18.67"/>
    <vehicle id="veh15" type="passenger" route="r9" depart="20.0"/>
    <vehicle id="veh16" type="passenger" route="r8" depart="21.33"/>
    <vehicle id="veh17" type="passenger" route="r4" depart="22.67"/>
    <vehicle id="veh18" type="passenger" route="r1" depart="24.0"/>
    <vehicle id="veh19" type="passenger" route="r4" depart="25.33"/>
    <vehicle id="veh20" type="passenger" route="r8" depart="26.67"/>
    <vehicle id="veh21" type="passenger" route="r1" depart="28.0"/>
    <vehicle id="veh22" type="passenger" route="r5" depart="29.33"/>
    <vehicle id="veh23" type="passenger" route="r8" depart="30.67"/>
    <vehicle id="veh24" type="passenger" route="r1" depart="32.0"/>
    <vehicle id="veh25" type="passenger" route="r1" depart="33.33"/>
    <vehicle id="veh26" type="passenger" route="r4" depart="34.67"/>
    <vehicle id="veh27" type="passenger" route="r0" depart="36.0"/>
    <vehicle id="veh28" type="passenger" route="r0" depart="37.33"/>
    <vehicle id="veh29" type="passenger" route="r0" depart="38.67"/>
    <vehicle id="veh30" type="passenger" route="r6" depart="40.0"/>
    <vehicle id="veh31" type="passenger" route="r9" depart="41.33"/>
    <vehicle id="veh32" type="passenger" route="r4" depart="42.67"/>
    <vehicle id="veh33" type="passenger" route="r4" depart="44.0"/>
    <vehicle id="veh34" type="passenger" route="r6" depart="45.33"/>
    <vehicle id="veh35" type="passenger" route="r1" depart="46.67"/>
    <vehicle id="veh36" type="emergency" route="r1" depart="48.0"/>
    <vehicle id="veh37" type="passenger" route="r7" depart="49.33"/>
    <vehicle id="veh38" type="passenger" route="r2" depart="50.67"/>
    <vehicle id="veh39" type="passenger" route="r3" depart="52.0"/>
    <vehicle id="veh40" type="passenger" route="r3" depart="53.33"/>
    <vehicle id="veh41" type="passenger" route="r2" depart="54.67"/>
    <vehicle id="veh42" type="passenger" route="r6" depart="56.0"/>
    <vehicle id="veh43" type="passenger" route="r6" depart="57.33"/>
    <vehicle id="veh44" type="passenger" route="r0" depart="58.67"/>
    <vehicle id="veh45" type="passenger" route="r9" depart="60.0"/>
    <vehicle id="veh46" type="passenger" route="r0" depart="61.33"/>
    <vehicle id="veh47" type="passenger" route="r6" depart="62.67"/>
    <vehicle id="veh48" type="passenger" route="r9" depart="64.0"/>
    <vehicle id="veh49" type="passenger" route="r1" depart="65.33"/>
    <vehicle id="veh50" type="passenger" route="r2" depart="66.67"/>
    <vehicle id="veh51" type="emergency" route="r4" depart="68.0"/>
    <vehicle id="veh52" type="passenger" route="r9" depart="69.33"/>
    <vehicle id="veh53" type="passenger" route="r4" depart="70.67"/>
    <vehicle id="veh54" type="passenger" route="r1" depart="72.0"/>
    <vehicle id="veh55" type="passenger" route="r9" depart="73.33"/>
    <vehicle id="veh56" type="passenger" route="r0" depart="74.67"/>
    <vehicle id="veh57" type="passenger" route="r5" depart="76.0"/>
    <vehicle id="veh58" type="passenger" route="r2" depart="77.33"/>
    <vehicle id="veh59" type="passenger" route="r7" depart="78.67"/>
    <vehicle id="veh60" type="passenger" route="r2" depart="80.0"/>
    <vehicle id="veh61" type="passenger" route="r2" depart="81.33"/>
    <vehicle id="veh62" type="passenger" route="r4" depart="82.67"/>
    <vehicle id="veh63" type="passenger" route="r9" depart="84.0"/>
    <vehicle id="veh64" type="passenger" route="r3" depart="85.33"/>
    <vehicle id="veh65" type="passenger" route="r8" depart="86.67"/>
    <vehicle id="veh66" type="passenger" route="r6" depart="88.0"/>
    <vehicle id="veh67" type="passenger" route="r9" depart="89.33"/>
    <vehicle id="veh68" type="passenger" route="r0" depart="90.67"/>
    <vehicle id="veh69" type="passenger" route="r0" depart="92.0"/>
    <vehicle id="veh70" type="passenger" route="r4" depart="93.33"/>
    <vehicle id="veh71" type="passenger" route="r6" depart="94.67"/>
    <vehicle id="veh72" type="passenger" route="r9" depart="96.0"/>
    <vehicle id="veh73" type="passenger" route="r8" depart="97.33"/>
    <vehicle id="veh74" type="passenger" route="r1" depart="98.67"/>
    <vehicle id="veh75" type="passenger" route="r7" depart="100.0"/>
    <vehicle id="veh76" type="passenger" route="r9" depart="101.33"/>
    <vehicle id="veh77" type="passenger" route="r4" depart="102.67"/>
    <vehicle id="veh78" type="passenger" route="r3" depart="104.0"/>
    <vehicle id="veh79" type="passenger" route="r1" depart="105.33"/>
    <vehicle id="veh80" type="passenger" route="r7" depart="106.67"/>
    <vehicle id="veh81" type="passenger" route="r0" depart="108.0"/>
    <vehicle id="veh82" type="passenger" route="r5" depart="109.33"/>
    <vehicle id="veh83" type="passenger" route="r2" depart="110.67"/>
    <vehicle id="veh84" type="passenger" route="r2" depart="112.0"/>
    <vehicle id="veh85" type="passenger" route="r5" depart="113.33"/>
    <vehicle id="veh86" type="passenger" route="r8" depart="114.67"/>
    <vehicle id="veh87" type="passenger" route="r2" depart="116.0"/>
    <vehicle id="veh88" type="passenger" route="r0" depart="117.33"/>
    <vehicle id="veh89" type="passenger" route="r5" depart="118.67"/>
    <vehicle id="veh90" type="passenger" route="r0" depart="120.0"/>
    <vehicle id="veh91" type="passenger" route="r1" depart="121.33"/>
    <vehicle id="veh92" type="passenger" route="r4" depart="122.67"/>
    <vehicle id="veh93" type="passenger" route="r1" depart="124.0"/>
    <vehicle id="veh94" type="passenger" route="r8" depart="125.33"/>
    <vehicle id="veh95" type="passenger" route="r0" depart="126.67"/>
    <vehicle id="veh96" type="passenger" route="r2" depart="128.0"/>
    <vehicle id="veh97" type="passenger" route="r5" depart="129.33"/>
    <vehicle id="veh98" type="passenger" route="r7" depart="130.67"/>
    <vehicle id="veh99" type="passenger" route="r6" depart="132.0"/>
    <vehicle id="veh100" type="passenger" route="r0" depart="133.33"/>
    <vehicle id="veh101" type="emergency" route="r9" depart="134.67"/>
    <vehicle id="veh102" type="passenger" route="r6" depart="136.0"/>
    <vehicle id="veh103" type="passenger" route="r0" depart="137.33"/>
    <vehicle id="veh104" type="passenger" route="r1" depart="138.67"/>
    <vehicle id="veh105" type="passenger" route="r1" depart="140.0"/>
    <vehicle id="veh106" type="passenger" route="r6" depart="141.33"/>
    <vehicle id="veh107" type="passenger" route="r6" depart="142.67"/>
    <vehicle id="veh108" type="passenger" route="r9" depart="144.0"/>
    <vehicle id="veh109" type="passenger" route="r7" depart="145.33"/>
    <vehicle id="veh110" type="passenger" route="r1" depart="146.67"/>
    <vehicle id="veh111" type="passenger" route="r8" depart="148.0"/>
    <vehicle id="veh112" type="passenger" route="r9" depart="149.33"/>
    <vehicle id="veh113" type="passenger" route="r0" depart="150.67"/>
    <vehicle id="veh114" type="passenger" route="r1" depart="152.0"/>
    <vehicle id="veh115" type="passenger" route="r9" depart="153.33"/>
    <vehicle id="veh116" type="passenger" route="r7" depart="154.67"/>
    <vehicle id="veh117" type="passenger" route="r0" depart="156.0"/>
    <vehicle id="veh118" type="passenger" route="r2" depart="157.33"/>
    <vehicle id="veh119" type="passenger" route="r3" depart="158.67"/>
    <vehicle id="veh120" type="passenger" route="r5" depart="160.0"/>
    <vehicle id="veh121" type="passenger" route="r7" depart="161.33"/>
    <vehicle id="veh122" type="passenger" route="r3" depart="162.67"/>
    <vehicle id="veh123" type="passenger" route="r4" depart="164.0"/>
    <vehicle id="veh124" type="passenger" route="r6" depart="165.33"/>
    <vehicle id="veh125" type="passenger" route="r3" depart="166.67"/>
    <vehicle id="veh126" type="passenger" route="r6" depart="168.0"/>
    <vehicle id="veh127" type="passenger" route="r5" depart="169.33"/>
    <vehicle id="veh128" type="passenger" route="r2" depart="170.67"/>
    <vehicle id="veh129" type="passenger" route="r0" depart="172.0"/>
    <vehicle id="veh130" type="passenger" route="r4" depart="173.33"/>
    <vehicle id="veh131" type="passenger" route="r1" depart="174.67"/>
    <vehicle id="veh132" type="passenger" route="r4" depart="176.0"/>
    <vehicle id="veh133" type="passenger" route="r6" depart="177.33"/>
    <vehicle id="veh134" type="passenger" route="r8" depart="178.67"/>
    <vehicle id="veh135" type="passenger" route="r5" depart="180.0"/>
    <vehicle id="veh136" type="passenger" route="r9" depart="181.33"/>
    <vehicle id="veh137" type="passenger" route="r1" depart="182.67"/>
    <vehicle id="veh138" type="passenger" route="r4" depart="184.0"/>
    <vehicle id="veh139" type="passenger" route="r0" depart="185.33"/>
    <vehicle id="veh140" type="passenger" route="r4" depart="186.67"/>
    <vehicle id="veh141" type="passenger" route="r4" depart="188.0"/>
    <vehicle id="veh142" type="emergency" route="r9" depart="189.33"/>
    <vehicle id="veh143" type="passenger" route="r2" depart="190.67"/>
    <vehicle id="veh144" type="passenger" route="r3" depart="192.0"/>
    <vehicle id="veh145" type="passenger" route="r4" depart="193.33"/>
    <vehicle id="veh146" type="passenger" route="r2" depart="194.67"/>
    <vehicle id="veh147" type="passenger" route="r1" depart="196.0"/>
    <vehicle id="veh148" type="passenger" route="r8" depart="197.33"/>
    <vehicle id="veh149" type="passenger" route="r5" depart="198.67"/>
    <vehicle id="veh150" type="passenger" route="r3" depart="200.0"/>
    <vehicle id="veh151" type="passenger" route="r7" depart="201.33"/>
    <vehicle id="veh152" type="passenger" route="r0" depart="202.67"/>
    <vehicle id="veh153" type="passenger" route="r8" depart="204.0"/>
    <vehicle id="veh154" type="passenger" route="r2" depart="205.33"/>
    <vehicle id="veh155" type="passenger" route="r5" depart="206.67"/>
    <vehicle id="veh156" type="passenger" route="r8" depart="208.0"/>
    <vehicle id="veh157" type="passenger" route="r2" depart="209.33"/>
    <vehicle id="veh158" type="passenger" route="r3" depart="210.67"/>
    <vehicle id="veh159" type="passenger" route="r6" depart="212.0"/>
    <vehicle id="veh160" type="passenger" route="r7" depart="213.33"/>
    <vehicle id="veh161" type="passenger" route="r0" depart="214.67"/>
    <vehicle id="veh162" type="passenger" route="r9" depart="216.0"/>
    <vehicle id="veh163" type="passenger" route="r8" depart="217.33"/>
    <vehicle id="veh164" type="passenger" route="r5" depart="218.67"/>
    <vehicle id="veh165" type="passenger" route="r3" depart="220.0"/>
    <vehicle id="veh166" type="passenger" route="r1" depart="221.33"/>
    <vehicle id="veh167" type="passenger" route="r6" depart="222.67"/>
    <vehicle id="veh168" type="passenger" route="r4" depart="224.0"/>
    <vehicle id="veh169" type="passenger" route="r5" depart="225.33"/>
    <vehicle id="veh170" type="passenger" route="r0" depart="226.67"/>
    <vehicle id="veh171" type="passenger" route="r1" depart="228.0"/>
    <vehicle id="veh172" type="passenger" route="r5" depart="229.33"/>
    <vehicle id="veh173" type="passenger" route="r4" depart="230.67"/>
    <vehicle id="veh174" type="passenger" route="r0" depart="232.0"/>
    <vehicle id="veh175" type="passenger" route="r1" depart="233.33"/>
    <vehicle id="veh176" type="passenger" route="r0" depart="234.67"/>
    <vehicle id="veh177" type="passenger" route="r5" depart="236.0"/>
    <vehicle id="veh178" type="passenger" route="r2" depart="237.33"/>
    <vehicle id="veh179" type="passenger" route="r8" depart="238.67"/>
    <vehicle id="veh180" type="passenger" route="r8" depart="240.0"/>
    <vehicle id="veh181" type="passenger" route="r7" depart="241.33"/>
    <vehicle id="veh182" type="passenger" route="r7" depart="242.67"/>
    <vehicle id="veh183" type="passenger" route="r1" depart="244.0"/>
    <vehicle id="veh184" type="passenger" route="r7" depart="245.33"/>
    <vehicle id="veh185" type="passenger" route="r4" depart="246.67"/>
    <vehicle id="veh186" type="passenger" route="r8" depart="248.0"/>
    <vehicle id="veh187" type="passenger" route="r8" depart="249.33"/>
    <vehicle id="veh188" type="passenger" route="r8" depart="250.67"/>
    <vehicle id="veh189" type="passenger" route="r6" depart="252.0"/>
    <vehicle id="veh190" type="passenger" route="r9" depart="253.33"/>
    <vehicle id="veh191" type="passenger" route="r2" depart="254.67"/>
    <vehicle id="veh192" type="passenger" route="r8" depart="256.0"/>
    <vehicle id="veh193" type="passenger" route="r7" depart="257.33"/>
    <vehicle id="veh194" type="passenger" route="r8" depart="258.67"/>
    <vehicle id="veh195" type="passenger" route="r0" depart="260.0"/>
    <vehicle id="veh196" type="passenger" route="r0" depart="261.33"/>
    <vehicle id="veh197" type="passenger" route="r0" depart="262.67"/>
    <vehicle id="veh198" type="passenger" route="r6" depart="264.0"/>
    <vehicle id="veh199" type="passenger" route="r9" depart="265.33"/>
    <vehicle id="veh200" type="passenger" route="r1" depart="266.67"/>
    <vehicle id="veh201" type="passenger" route="r1" depart="268.0"/>
    <vehicle id="veh202" type="passenger" route="r7" depart="269.33"/>
    <vehicle id="veh203" type="passenger" route="r6" depart="270.67"/>
    <vehicle id="veh204" type="passenger" route="r7" depart="272.0"/>
    <vehicle id="veh205" type="passenger" route="r5" depart="273.33"/>
    <vehicle id="veh206" type="passenger" route="r7" depart="274.67"/>
    <vehicle id="veh207" type="passenger" route="r1" depart="276.0"/>
    <vehicle id="veh208" type="passenger" route="r9" depart="277.33"/>
    <vehicle id="veh209" type="passenger" route="r4" depart="278.67"/>
    <vehicle id="veh210" type="passenger" route="r0" depart="280.0"/>
    <vehicle id="veh211" type="passenger" route="r2" depart="281.33"/>
    <vehicle id="veh212" type="passenger" route="r4" depart="282.67"/>
    <vehicle id="veh213" type="passenger" route="r5" depart="284.0"/>
    <vehicle id="veh214" type="passenger" route="r7" depart="285.33"/>
    <vehicle id="veh215" type="passenger" route="r9" depart="286.67"/>
    <vehicle id="veh216" type="passenger" route="r8" depart="288.0"/>
    <vehicle id="veh217" type="passenger" route="r3" depart="289.33"/>
    <vehicle id="veh218" type="passenger" route="r6" depart="290.67"/>
    <vehicle id="veh219" type="passenger" route="r6" depart="292.0"/>
    <vehicle id="veh220" type="passenger" route="r9" depart="293.33"/>
    <vehicle id="veh221" type="passenger" route="r3" depart="294.67"/>
    <vehicle id="veh222" type="passenger" route="r8" depart="296.0"/>
    <vehicle id="veh223" type="passenger" route="r8" depart="297.33"/>
    <vehicle id="veh224" type="passenger" route="r8" depart="298.67"/>
    <vehicle id="veh225" type="passenger" route="r2" depart="300.0"/>
    <vehicle id="veh226" type="passenger" route="r5" depart="301.33"/>
    <vehicle id="veh227" type="passenger" route="r5" depart="302.67"/>
    <vehicle id="veh228" type="passenger" route="r3" depart="304.0"/>
    <vehicle id="veh229" type="passenger" route="r3" depart="305.33"/>
    <vehicle id="veh230" type="passenger" route="r2" depart="306.67"/>
    <vehicle id="veh231" type="passenger" route="r2" depart="308.0"/>
    <vehicle id="veh232" type="passenger" route="r4" depart="309.33"/>
    <vehicle id="veh233" type="passenger" route="r6" depart="310.67"/>
    <vehicle id="veh234" type="passenger" route="r6" depart="312.0"/>
    <vehicle id="veh235" type="passenger" route="r2" depart="313.33"/>
    <vehicle id="veh236" type="passenger" route="r0" depart="314.67"/>
    <vehicle id="veh237" type="passenger" route="r9" depart="316.0"/>
    <vehicle id="veh238" type="passenger" route="r5" depart="317.33"/>
    <vehicle id="veh239" type="passenger" route="r8" depart="318.67"/>
    <vehicle id="veh240" type="passenger" route="r5" depart="320.0"/>
    <vehicle id="veh241" type="passenger" route="r3" depart="321.33"/>
    <vehicle id="veh242" type="passenger" route="r7" depart="322.67"/>
    <vehicle id="veh243" type="passenger" route="r0" depart="324.0"/>
    <vehicle id="veh244" type="passenger" route="r9" depart="325.33"/>
    <vehicle id="veh245" type="passenger" route="r9" depart="326.67"/>
    <vehicle id="veh246" type="passenger" route="r3" depart="328.0"/>
    <vehicle id="veh247" type="passenger" route="r3" depart="329.33"/>
    <vehicle id="veh248" type="passenger" route="r2" depart="330.67"/>
    <vehicle id="veh249" type="passenger" route="r1" depart="332.0"/>
    <vehicle id="veh250" type="passenger" route="r2" depart="333.33"/>
    <vehicle id="veh251" type="passenger" route="r7" depart="334.67"/>
    <vehicle id="veh252" type="passenger" route="r1" depart="336.0"/>
    <vehicle id="veh253" type="passenger" route="r7" depart="337.33"/>
    <vehicle id="veh254" type="passenger" route="r5" depart="338.67"/>
    <vehicle id="veh255" type="passenger" route="r9" depart="340.0"/>
    <vehicle id="veh256" type="passenger" route="r0" depart="341.33"/>
    <vehicle id="veh257" type="passenger" route="r2" depart="342.67"/>
    <vehicle id="veh258" type="passenger" route="r5" depart="344.0"/>
    <vehicle id="veh259" type="passenger" route="r6" depart="345.33"/>
    <vehicle id="veh260" type="passenger" route="r9" depart="346.67"/>
    <vehicle id="veh261" type="passenger" route="r8" depart="348.0"/>
    <vehicle id="veh262" type="passenger" route="r5" depart="349.33"/>
    <vehicle id="veh263" type="passenger" route="r6" depart="350.67"/>
    <vehicle id="veh264" type="passenger" route="r3" depart="352.0"/>
    <vehicle id="veh265" type="passenger" route="r5" depart="353.33"/>
    <vehicle id="veh266" type="passenger" route="r4" depart="354.67"/>
    <vehicle id="veh267" type="passenger" route="r1" depart="356.0"/>
    <vehicle id="veh268" type="passenger" route="r2" depart="357.33"/>
    <vehicle id="veh269" type="passenger" route="r6" depart="358.67"/>
    <vehicle id="veh270" type="passenger" route="r5" depart="360.0"/>
    <vehicle id="veh271" type="passenger" route="r5" depart="361.33"/>
    <vehicle id="veh272" type="passenger" route="r2" depart="362.67"/>
    <vehicle id="veh273" type="passenger" route="r2" depart="364.0"/>
    <vehicle id="veh274" type="passenger" route="r5" depart="365.33"/>
    <vehicle id="veh275" type="emergency" route="r1" depart="366.67"/>
    <vehicle id="veh276" type="passenger" route="r5" depart="368.0"/>
    <vehicle id="veh277" type="passenger" route="r9" depart="369.33"/>
    <vehicle id="veh278" type="passenger" route="r4" depart="370.67"/>
    <vehicle id="veh279" type="passenger" route="r4" depart="372.0"/>
    <vehicle id="veh280" type="passenger" route="r6" depart="373.33"/>
    <vehicle id="veh281" type="passenger" route="r8" depart="374.67"/>
    <vehicle id="veh282" type="passenger" route="r8" depart="376.0"/>
    <vehicle id="veh283" type="passenger" route="r3" depart="377.33"/>
    <vehicle id="veh284" type="passenger" route="r6" depart="378.67"/>
    <vehicle id="veh285" type="passenger" route="r0" depart="380.0"/>
    <vehicle id="veh286" type="passenger" route="r1" depart="381.33"/>
    <vehicle id="veh287" type="passenger" route="r4" depart="382.67"/>
    <vehicle id="veh288" type="passenger" route="r8" depart="384.0"/>
    <vehicle id="veh289" type="passenger" route="r3" depart="385.33"/>
    <vehicle id="veh290" type="passenger" route="r0" depart="386.67"/>
    <vehicle id="veh291" type="passenger" route="r4" depart="388.0"/>
    <vehicle id="veh292" type="passenger" route="r5" depart="389.33"/>
    <vehicle id="veh293" type="passenger" route="r8" depart="390.67"/>
    <vehicle id="veh294" type="passenger" route="r8" depart="392.0"/>
    <vehicle id="veh295" type="passenger" route="r1" depart="393.33"/>
    <vehicle id="veh296" type="passenger" route="r1" depart="394.67"/>
    <vehicle id="veh297" type="passenger" route="r0" depart="396.0"/>
    <vehicle id="veh298" type="passenger" route="r2" depart="397.33"/>
    <vehicle id="veh299" type="passenger" route="r2" depart="398.67"/>
    <vehicle id="veh300" type="passenger" route="r8" depart="400.0"/>
    <vehicle id="veh301" type="passenger" route="r0" depart="401.33"/>
    <vehicle id="veh302" type="passenger" route="r7" depart="402.67"/>
    <vehicle id="veh303" type="passenger" route="r8" depart="404.0"/>
    <vehicle id="veh304" type="passenger" route="r4" depart="405.33"/>
    <vehicle id="veh305" type="passenger" route="r4" depart="406.67"/>
    <vehicle id="veh306" type="passenger" route="r4" depart="408.0"/>
    <vehicle id="veh307" type="passenger" route="r4" depart="409.33"/>
    <vehicle id="veh308" type="passenger" route="r4" depart="410.67"/>
    <vehicle id="veh309" type="passenger" route="r3" depart="412.0"/>
    <vehicle id="veh310" type="passenger" route="r2" depart="413.33"/>
    <vehicle id="veh311" type="passenger" route="r6" depart="414.67"/>
    <vehicle id="veh312" type="passenger" route="r5" depart="416.0"/>
    <vehicle id="veh313" type="passenger" route="r0" depart="417.33"/>
    <vehicle id="veh314" type="passenger" route="r5" depart="418.67"/>
    <vehicle id="veh315" type="passenger" route="r3" depart="420.0"/>
    <vehicle id="veh316" type="passenger" route="r7" depart="421.33"/>
    <vehicle id="veh317" type="passenger" route="r3" depart="422.67"/>
    <vehicle id="veh318" type="passenger" route="r1" depart="424.0"/>
    <vehicle id="veh319" type="passenger" route="r7" depart="425.33"/>
    <vehicle id="veh320" type="passenger" route="r3" depart="426.67"/>
    <vehicle id="veh321" type="passenger" route="r1" depart="428.0"/>
    <vehicle id="veh322" type="passenger" route="r6" depart="429.33"/>
    <vehicle id="veh323" type="passenger" route="r3" depart="430.67"/>
    <vehicle id="veh324" type="passenger" route="r5" depart="432.0"/>
    <vehicle id="veh325" type="passenger" route="r1" depart="433.33"/>
    <vehicle id="veh326" type="passenger" route="r2" depart="434.67"/>
    <vehicle id="veh327" type="passenger" route="r7" depart="436.0"/>
    <vehicle id="veh328" type="passenger" route="r9" depart="437.33"/>
    <vehicle id="veh329" type="passenger" route="r5" depart="438.67"/>
    <vehicle id="veh330" type="passenger" route="r8" depart="440.0"/>
    <vehicle id="veh331" type="passenger" route="r2" depart="441.33"/>
    <vehicle id="veh332" type="passenger" route="r2" depart="442.67"/>
    <vehicle id="veh333" type="passenger" route="r1" depart="444.0"/>
    <vehicle id="veh334" type="passenger" route="r4" depart="445.33"/>
    <vehicle id="veh335" type="passenger" route="r9" depart="446.67"/>
    <vehicle id="veh336" type="passenger" route="r4" depart="448.0"/>
    <vehicle id="veh337" type="passenger" route="r9" depart="449.33"/>
    <vehicle id="veh338" type="passenger" route="r3" depart="450.67"/>
    <vehicle id="veh339" type="passenger" route="r3" depart="452.0"/>
    <vehicle id="veh340" type="passenger" route="r3" depart="453.33"/>
    <vehicle id="veh341" type="passenger" route="r3" depart="454.67"/>
    <vehicle id="veh342" type="passenger" route="r0" depart="456.0"/>
    <vehicle id="veh343" type="passenger" route="r0" depart="457.33"/>
    <vehicle id="veh344" type="passenger" route="r6" depart="458.67"/>
    <vehicle id="veh345" type="passenger" route="r0" depart="460.0"/>
    <vehicle id="veh346" type="passenger" route="r8" depart="461.33"/>
    <vehicle id="veh347" type="passenger" route="r1" depart="462.67"/>
    <vehicle id="veh348" type="passenger" route="r2" depart="464.0"/>
    <vehicle id="veh349" type="passenger" route="r5" depart="465.33"/>
    <vehicle id="veh350" type="passenger" route="r5" depart="466.67"/>
    <vehicle id="veh351" type="passenger" route="r5" depart="468.0"/>
    <vehicle id="veh352" type="passenger" route="r2" depart="469.33"/>
    <vehicle id="veh353" type="passenger" route="r1" depart="470.67"/>
    <vehicle id="veh354" type="passenger" route="r7" depart="472.0"/>
    <vehicle id="veh355" type="passenger" route="r9" depart="473.33"/>
    <vehicle id="veh356" type="passenger" route="r3" depart="474.67"/>
    <vehicle id="veh357" type="passenger" route="r4" depart="476.0"/>
    <vehicle id="veh358" type="passenger" route="r2" depart="477.33"/>
    <vehicle id="veh359" type="passenger" route="r9" depart="478.67"/>
    <vehicle id="veh360" type="passenger" route="r8" depart="480.0"/>
    <vehicle id="veh361" type="passenger" route="r2" depart="481.33"/>
    <vehicle id="veh362" type="passenger" route="r5" depart="482.67"/>
    <vehicle id="veh363" type="passenger" route="r7" depart="484.0"/>
    <vehicle id="veh364" type="passenger" route="r1" depart="485.33"/>
    <vehicle id="veh365" type="passenger" route="r6" depart="486.67"/>
    <vehicle id="veh366" type="passenger" route="r7" depart="488.0"/>
    <vehicle id="veh367" type="passenger" route="r7" depart="489.33"/>
    <vehicle id="veh368" type="passenger" route="r0" depart="490.67"/>
    <vehicle id="veh369" type="passenger" route="r3" depart="492.0"/>
    <vehicle id="veh370" type="passenger" route="r9" depart="493.33"/>
    <vehicle id="veh371" type="passenger" route="r4" depart="494.67"/>
    <vehicle id="veh372" type="passenger" route="r5" depart="496.0"/>
    <vehicle id="veh373" type="passenger" route="r2" depart="497.33"/>
    <vehicle id="veh374" type="passenger" route="r5" depart="498.67"/>
    <vehicle id="veh375" type="passenger" route="r1" depart="500.0"/>
    <vehicle id="veh376" type="passenger" route="r7" depart="501.33"/>
    <vehicle id="veh377" type="passenger" route="r4" depart="502.67"/>
    <vehicle id="veh378" type="passenger" route="r4" depart="504.0"/>
    <vehicle id="veh379" type="passenger" route="r3" depart="505.33"/>
    <vehicle id="veh380" type="passenger" route="r8" depart="506.67"/>
    <vehicle id="veh381" type="passenger" route="r5" depart="508.0"/>
    <vehicle id="veh382" type="passenger" route="r0" depart="509.33"/>
    <vehicle id="veh383" type="passenger" route="r6" depart="510.67"/>
    <vehicle id="veh384" type="passenger" route="r3" depart="512.0"/>
    <vehicle id="veh385" type="passenger" route="r5" depart="513.33"/>
    <vehicle id="veh386" type="passenger" route="r8" depart="514.67"/>
    <vehicle id="veh387" type="passenger" route="r9" depart="516.0"/>
    <vehicle id="veh388" type="passenger" route="r2" depart="517.33"/>
    <vehicle id="veh389" type="passenger" route="r7" depart="518.67"/>
    <vehicle id="veh390" type="passenger" route="r4" depart="520.0"/>
    <vehicle id="veh391" type="passenger" route="r3" depart="521.33"/>
    <vehicle id="veh392" type="passenger" route="r8" depart="522.67"/>
    <vehicle id="veh393" type="passenger" route="r4" depart="524.0"/>
    <vehicle id="veh394" type="passenger" route="r6" depart="525.33"/>
    <vehicle id="veh395" type="passenger" route="r8" depart="526.67"/>
    <vehicle id="veh396" type="passenger" route="r8" depart="528.0"/>
    <vehicle id="veh397" type="passenger" route="r1" depart="529.33"/>
    <vehicle id="veh398" type="passenger" route="r1" depart="530.67"/>
    <vehicle id="veh399" type="passenger" route="r1" depart="532.0"/>
    <vehicle id="veh400" type="passenger" route="r2" depart="533.33"/>
    <vehicle id="veh401" type="passenger" route="r6" depart="534.67"/>
    <vehicle id="veh402" type="passenger" route="r3" depart="536.0"/>
    <vehicle id="veh403" type="passenger" route="r8" depart="537.33"/>
    <vehicle id="veh404" type="passenger" route="r7" depart="538.67"/>
    <vehicle id="veh405" type="passenger" route="r5" depart="540.0"/>
    <vehicle id="veh406" type="passenger" route="r5" depart="541.33"/>
    <vehicle id="veh407" type="passenger" route="r7" depart="542.67"/>
    <vehicle id="veh408" type="passenger" route="r1" depart="544.0"/>
    <vehicle id="veh409" type="passenger" route="r0" depart="545.33"/>
    <vehicle id="veh410" type="passenger" route="r5" depart="546.67"/>
    <vehicle id="veh411" type="passenger" route="r6" depart="548.0"/>
    <vehicle id="veh412" type="passenger" route="r7" depart="549.33"/>
    <vehicle id="veh413" type="passenger" route="r0" depart="550.67"/>