<?xml version="1.0" encoding="UTF-8"?>

<!-- generated on 2026-04-11T15:09:23.933627+05:30 by Eclipse SUMO netconvert 1.26.0
<netconvertConfiguration xmlns:xsi="http://www.w3.org/2001/XMLSchema-instance" xsi:noNamespaceSchemaLocation="http://sumo.dlr.de/xsd/netconvertConfiguration.xsd">

    <input>
        <node-files value="C:\Users\santhosh\OneDrive\Desktop\trafiic pro\web_runs\20260411_150923_740391\area.nod.xml"/>
        <edge-files value="C:\Users\santhosh\OneDrive\Desktop\trafiic pro\web_runs\20260411_150923_740391\area.edg.xml"/>
    </input>

    <output>
        <output-file value="C:\Users\santhosh\OneDrive\Desktop\trafiic pro\web_runs\20260411_150923_740391\area.net.xml"/>
    </output>

</netconvertConfiguration>
-->

<net version="1.20" junctionCornerDetail="5" limitTurnSpeed="5.50" xmlns:xsi="http://www.w3.org/2001/XMLSchema-instance" xsi:noNamespaceSchemaLocation="http://sumo.dlr.de/xsd/net_file.xsd">

    <location netOffset="0.00,0.00" convBoundary="0.00,0.00,900.00,738.00" origBoundary="0.00,0.00,900.00,738.00" projParameter="!"/>

    <edge id=":E0_0" function="internal">
        <lane id=":E0_0_0" index="0" speed="3.65" length="4.67" shape="900.00,105.33 901.20,106.13 901.60,106.93 901.20,107.73 900.00,108.53"/>
    </edge>
    <edge id=":E1_0" function="internal">
        <lane id=":E1_0_0" index="0" speed="3.65" length="4.67" shape="900.00,617.37 901.20,618.17 901.60,618.97 901.20,619.77 900.00,620.57"/>
    </edge>
    <edge id=":J0_0_0" function="internal">
        <lane id=":J0_0_0_0" index="0" speed="7.00" length="10.07" shape="150.36,109.42 147.76,109.81 145.83,110.99 144.59,112.97 144.03,115.75"/>
    </edge>
    <edge id=":J0_0_1" function="internal">
        <lane id=":J0_0_1_0" index="0" speed="13.90" length="21.23" shape="150.36,109.42 129.13,109.38"/>
        <lane id=":J0_0_1_1" index="1" speed="13.90" length="21.23" shape="150.37,106.22 129.13,106.18"/>
    </edge>
    <edge id=":J0_0_3" function="internal">
        <lane id=":J0_0_3_0" index="0" speed="9.27" length="4.94" shape="150.37,106.22 145.48,105.50"/>
    </edge>
    <edge id=":J0_0_4" function="internal">
        <lane id=":J0_0_4_0" index="0" speed="3.65" length="1.44" shape="150.37,106.22 149.17,105.41"/>
    </edge>
    <edge id=":J0_0_20" function="internal">
        <lane id=":J0_0_20_0" index="0" speed="9.27" length="14.40" shape="145.48,105.50 145.13,105.45 141.39,103.19 139.15,99.43 138.40,94.18"/>
    </edge>
    <edge id=":J0_0_21" function="internal">
        <lane id=":J0_0_21_0" index="0" speed="3.65" length="3.23" shape="149.17,105.41 148.78,104.61 149.18,103.81 150.38,103.02"/>
    </edge>
    <edge id=":J0_0_5" function="internal">
        <lane id=":J0_0_5_0" index="0" speed="6.52" length="9.05" shape="144.80,94.18 145.15,96.64 146.20,98.40 147.95,99.46 150.39,99.82"/>
    </edge>
    <edge id=":J0_0_6" function="internal">
        <lane id=":J0_0_6_0" index="0" speed="13.90" length="21.48" shape="144.80,94.18 144.03,115.75"/>
        <lane id=":J0_0_6_1" index="1" speed="13.90" length="21.48" shape="141.60,94.18 140.83,115.53"/>
    </edge>
    <edge id=":J0_0_8" function="internal">
        <lane id=":J0_0_8_0" index="0" speed="9.34" length="5.31" shape="141.60,94.18 140.82,99.43"/>
    </edge>
    <edge id=":J0_0_9" function="internal">
        <lane id=":J0_0_9_0" index="0" speed="3.65" length="1.44" shape="141.60,94.18 140.80,95.38"/>
    </edge>
    <edge id=":J0_0_22" function="internal">
        <lane id=":J0_0_22_0" index="0" speed="9.34" length="14.42" shape="140.82,99.43 138.48,103.18 134.59,105.43 129.13,106.18"/>
    </edge>
    <edge id=":J0_0_23" function="internal">
        <lane id=":J0_0_23_0" index="0" speed="3.65" length="3.23" shape="140.80,95.38 140.00,95.78 139.20,95.38 138.40,94.18"/>
    </edge>
    <edge id=":J0_0_10" function="internal">
        <lane id=":J0_0_10_0" index="0" speed="6.63" length="9.41" shape="129.13,99.78 131.79,99.43 133.68,98.38 134.82,96.63 135.20,94.18"/>
    </edge>
    <edge id=":J0_0_11" function="internal">
        <lane id=":J0_0_11_0" index="0" speed="13.90" length="21.25" shape="129.13,99.78 150.39,99.82"/>
        <lane id=":J0_0_11_1" index="1" speed="13.90" length="21.25" shape="129.13,102.98 150.38,103.02"/>
    </edge>
    <edge id=":J0_0_13" function="internal">
        <lane id=":J0_0_13_0" index="0" speed="9.15" length="5.04" shape="129.13,102.98 134.12,103.70"/>
    </edge>
    <edge id=":J0_0_14" function="internal">
        <lane id=":J0_0_14_0" index="0" speed="3.65" length="1.44" shape="129.13,102.98 130.33,103.78"/>
    </edge>
    <edge id=":J0_0_24" function="internal">
        <lane id=":J0_0_24_0" index="0" speed="9.15" length="14.86" shape="134.12,103.70 134.58,103.76 138.35,106.12 140.43,110.04 140.83,115.53"/>
    </edge>
    <edge id=":J0_0_25" function="internal">
        <lane id=":J0_0_25_0" index="0" speed="3.65" length="3.23" shape="130.33,103.78 130.73,104.58 130.33,105.38 129.13,106.18"/>
    </edge>
    <edge id=":J0_0_15" function="internal">
        <lane id=":J0_0_15_0" index="0" speed="6.36" length="9.04" shape="134.45,115.08 134.27,112.59 133.32,110.81 131.61,109.74 129.13,109.38"/>
    </edge>
    <edge id=":J0_0_16" function="internal">
        <lane id=":J0_0_16_0" index="0" speed="13.90" length="21.03" shape="134.45,115.08 135.20,94.18"/>
        <lane id=":J0_0_16_1" index="1" speed="13.90" length="21.03" shape="137.64,115.31 138.40,94.18"/>
    </edge>
    <edge id=":J0_0_18" function="internal">
        <lane id=":J0_0_18_0" index="0" speed="9.62" length="4.22" shape="137.64,115.31 138.50,111.17"/>
    </edge>
    <edge id=":J0_0_19" function="internal">
        <lane id=":J0_0_19_0" index="0" speed="3.65" length="1.44" shape="137.64,115.31 138.52,114.17"/>
    </edge>
    <edge id=":J0_0_26" function="internal">
        <lane id=":J0_0_26_0" index="0" speed="9.62" length="15.68" shape="138.50,111.17 138.76,109.91 141.26,106.07 145.13,103.77 150.38,103.02"/>
    </edge>
    <edge id=":J0_0_27" function="internal">
        <lane id=":J0_0_27_0" index="0" speed="3.65" length="3.23" shape="138.52,114.17 139.35,113.82 140.12,114.28 140.83,115.53"/>
    </edge>
    <edge id=":J0_1_0" function="internal">
        <lane id=":J0_1_0_0" index="0" speed="6.66" length="9.38" shape="796.70,111.73 794.21,112.10 792.41,113.20 791.31,115.04 790.91,117.61"/>
    </edge>
    <edge id=":J0_1_1" function="internal">
        <lane id=":J0_1_1_0" index="0" speed="13.90" length="27.30" shape="796.70,111.73 769.39,111.68"/>
        <lane id=":J0_1_1_1" index="1" speed="13.90" length="27.30" shape="796.70,108.53 769.40,108.48"/>
    </edge>
    <edge id=":J0_1_3" function="internal">
        <lane id=":J0_1_3_0" index="0" speed="9.84" length="6.38" shape="796.70,108.53 790.36,107.81"/>
    </edge>
    <edge id=":J0_1_4" function="internal">
        <lane id=":J0_1_4_0" index="0" speed="3.65" length="1.44" shape="796.70,108.53 795.50,107.73"/>
    </edge>
    <edge id=":J0_1_22" function="internal">
        <lane id=":J0_1_22_0" index="0" speed="9.84" length="15.64" shape="790.36,107.81 790.05,107.78 785.30,105.52 782.45,101.76 781.50,96.49"/>
    </edge>
    <edge id=":J0_1_23" function="internal">
        <lane id=":J0_1_23_0" index="0" speed="3.65" length="3.23" shape="795.50,107.73 795.10,106.93 795.50,106.13 796.70,105.33"/>
    </edge>
    <edge id=":J0_1_5" function="internal">
        <lane id=":J0_1_5_0" index="0" speed="6.52" length="9.06" shape="791.10,96.49 791.45,98.96 792.50,100.72 794.25,101.78 796.70,102.13"/>
    </edge>
    <edge id=":J0_1_6" function="internal">
        <lane id=":J0_1_6_0" index="0" speed="15.50" length="21.06" shape="791.10,96.49 790.91,117.61"/>
        <lane id=":J0_1_6_1" index="1" speed="15.50" length="21.06" shape="787.90,96.49 787.71,117.55"/>
        <lane id=":J0_1_6_2" index="2" speed="15.50" length="21.06" shape="784.70,96.49 784.51,117.50"/>
    </edge>
    <edge id=":J0_1_9" function="internal">
        <lane id=":J0_1_9_0" index="0" speed="9.85" length="4.20" shape="784.70,96.49 783.95,100.63"/>
    </edge>
    <edge id=":J0_1_10" function="internal">
        <lane id=":J0_1_10_0" index="0" speed="3.65" length="1.44" shape="784.70,96.49 783.90,97.69"/>
    </edge>
    <edge id=":J0_1_24" function="internal">
        <lane id=":J0_1_24_0" index="0" speed="9.85" length="17.89" shape="783.95,100.63 783.74,101.76 780.88,105.51 776.09,107.75 769.40,108.48"/>
    </edge>
    <edge id=":J0_1_25" function="internal">
        <lane id=":J0_1_25_0" index="0" speed="3.65" length="3.23" shape="783.90,97.69 783.10,98.09 782.30,97.69 781.50,96.49"/>
    </edge>
    <edge id=":J0_1_11" function="internal">
        <lane id=":J0_1_11_0" index="0" speed="6.52" length="9.09" shape="769.42,102.08 771.91,101.74 773.68,100.69 774.75,98.95 775.10,96.49"/>
    </edge>
    <edge id=":J0_1_12" function="internal">
        <lane id=":J0_1_12_0" index="0" speed="13.90" length="27.28" shape="769.42,102.08 796.70,102.13"/>
        <lane id=":J0_1_12_1" index="1" speed="13.90" length="27.28" shape="769.41,105.28 796.70,105.33"/>
    </edge>
    <edge id=":J0_1_14" function="internal">
        <lane id=":J0_1_14_0" index="0" speed="9.82" length="6.15" shape="769.41,105.28 775.53,106.00"/>
    </edge>
    <edge id=":J0_1_15" function="internal">
        <lane id=":J0_1_15_0" index="0" speed="3.65" length="1.44" shape="769.41,105.28 770.61,106.08"/>
    </edge>
    <edge id=":J0_1_26" function="internal">
        <lane id=":J0_1_26_0" index="0" speed="9.82" length="15.97" shape="775.53,106.00 776.10,106.06 780.85,108.36 783.65,112.17 784.51,117.50"/>
    </edge>
    <edge id=":J0_1_27" function="internal">
        <lane id=":J0_1_27_0" index="0" speed="3.65" length="3.23" shape="770.61,106.08 771.01,106.89 770.60,107.68 769.40,108.48"/>
    </edge>
    <edge id=":J0_1_16" function="internal">
        <lane id=":J0_1_16_0" index="0" speed="6.48" length="9.03" shape="774.91,117.32 774.60,114.86 773.58,113.10 771.84,112.04 769.39,111.68"/>
    </edge>
    <edge id=":J0_1_17" function="internal">
        <lane id=":J0_1_17_0" index="0" speed="15.50" length="20.89" shape="774.91,117.32 775.10,96.49"/>
        <lane id=":J0_1_17_1" index="1" speed="15.50" length="20.89" shape="778.11,117.38 778.30,96.49"/>
        <lane id=":J0_1_17_2" index="2" speed="15.50" length="20.89" shape="781.31,117.44 781.50,96.49"/>
    </edge>
    <edge id=":J0_1_20" function="internal">
        <lane id=":J0_1_20_0" index="0" speed="9.94" length="3.88" shape="781.31,117.44 782.06,113.63"/>
    </edge>
    <edge id=":J0_1_21" function="internal">
        <lane id=":J0_1_21_0" index="0" speed="3.65" length="1.44" shape="781.31,117.44 782.13,116.25"/>
    </edge>
    <edge id=":J0_1_28" function="internal">
        <lane id=":J0_1_28_0" index="0" speed="9.94" length="18.28" shape="782.06,113.63 782.35,112.14 785.27,108.36 790.05,106.09 796.70,105.33"/>
    </edge>
    <edge id=":J0_1_29" function="internal">
        <lane id=":J0_1_29_0" index="0" speed="3.65" length="3.23" shape="782.13,116.25 782.94,115.87 783.73,116.28 784.51,117.50"/>
    </edge>
    <edge id=":J1_0_0" function="internal">
        <lane id=":J1_0_0_0" index="0" speed="6.51" length="9.03" shape="98.55,640.03 98.20,637.58 97.15,635.83 95.40,634.78 92.95,634.43"/>
    </edge>
    <edge id=":J1_0_1" function="internal">
        <lane id=":J1_0_1_0" index="0" speed="13.90" length="27.96" shape="98.55,640.03 99.55,611.98"/>
        <lane id=":J1_0_1_1" index="1" speed="13.90" length="27.96" shape="101.75,640.03 102.75,612.20"/>
    </edge>
    <edge id=":J1_0_3" function="internal">
        <lane id=":J1_0_3_0" index="0" speed="10.02" length="6.91" shape="101.75,640.03 102.55,633.38 102.64,633.19"/>
    </edge>
    <edge id=":J1_0_4" function="internal">
        <lane id=":J1_0_4_0" index="0" speed="3.65" length="1.44" shape="101.75,640.03 102.55,638.83"/>
    </edge>
    <edge id=":J1_0_22" function="internal">
        <lane id=":J1_0_22_0" index="0" speed="10.02" length="15.74" shape="102.64,633.19 104.95,628.61 108.94,625.72 114.53,624.71"/>
    </edge>
    <edge id=":J1_0_23" function="internal">
        <lane id=":J1_0_23_0" index="0" speed="3.65" length="3.23" shape="102.55,638.83 103.35,638.43 104.15,638.83 104.95,640.03"/>
    </edge>
    <edge id=":J1_0_5" function="internal">
        <lane id=":J1_0_5_0" index="0" speed="6.79" length="9.83" shape="114.64,634.30 111.80,634.69 109.77,635.77 108.56,637.55 108.15,640.03"/>
    </edge>
    <edge id=":J1_0_6" function="internal">
        <lane id=":J1_0_6_0" index="0" speed="15.50" length="21.66" shape="114.64,634.30 92.95,634.43"/>
        <lane id=":J1_0_6_1" index="1" speed="15.50" length="21.66" shape="114.61,631.11 92.95,631.23"/>
        <lane id=":J1_0_6_2" index="2" speed="15.50" length="21.66" shape="114.57,627.91 92.95,628.03"/>
    </edge>
    <edge id=":J1_0_9" function="internal">
        <lane id=":J1_0_9_0" index="0" speed="9.72" length="4.21" shape="114.57,627.91 110.42,627.22"/>
    </edge>
    <edge id=":J1_0_10" function="internal">
        <lane id=":J1_0_10_0" index="0" speed="3.65" length="1.44" shape="114.57,627.91 113.36,627.12"/>
    </edge>
    <edge id=":J1_0_24" function="internal">
        <lane id=":J1_0_24_0" index="0" speed="9.72" length="18.56" shape="110.42,627.22 108.98,626.98 105.15,624.05 103.07,619.12 102.75,612.20"/>
    </edge>
    <edge id=":J1_0_25" function="internal">
        <lane id=":J1_0_25_0" index="0" speed="3.65" length="3.23" shape="113.36,627.12 112.95,626.32 113.34,625.52 114.53,624.71"/>
    </edge>
    <edge id=":J1_0_11" function="internal">
        <lane id=":J1_0_11_0" index="0" speed="6.34" length="9.04" shape="109.13,612.65 109.31,615.15 110.26,616.92 111.98,617.98 114.46,618.31"/>
    </edge>
    <edge id=":J1_0_12" function="internal">
        <lane id=":J1_0_12_0" index="0" speed="13.90" length="27.51" shape="109.13,612.65 108.15,640.03"/>
        <lane id=":J1_0_12_1" index="1" speed="13.90" length="27.51" shape="105.94,612.42 104.95,640.03"/>
    </edge>
    <edge id=":J1_0_14" function="internal">
        <lane id=":J1_0_14_0" index="0" speed="10.26" length="5.02" shape="105.94,612.42 105.05,617.36"/>
    </edge>
    <edge id=":J1_0_15" function="internal">
        <lane id=":J1_0_15_0" index="0" speed="3.65" length="1.44" shape="105.94,612.42 105.06,613.57"/>
    </edge>
    <edge id=":J1_0_26" function="internal">
        <lane id=":J1_0_26_0" index="0" speed="10.26" length="17.69" shape="105.05,617.36 104.71,619.25 102.14,624.13 98.22,627.05 92.95,628.03"/>
    </edge>
    <edge id=":J1_0_27" function="internal">
        <lane id=":J1_0_27_0" index="0" speed="3.65" length="3.23" shape="105.06,613.57 104.23,613.91 103.46,613.45 102.75,612.20"/>
    </edge>
    <edge id=":J1_0_16" function="internal">
        <lane id=":J1_0_16_0" index="0" speed="7.10" length="10.37" shape="92.95,618.43 95.67,618.03 97.68,616.82 98.97,614.80 99.55,611.98"/>
    </edge>
    <edge id=":J1_0_17" function="internal">
        <lane id=":J1_0_17_0" index="0" speed="15.50" length="21.55" shape="92.95,618.43 114.46,618.31"/>
        <lane id=":J1_0_17_1" index="1" speed="15.50" length="21.55" shape="92.95,621.63 114.50,621.51"/>
        <lane id=":J1_0_17_2" index="2" speed="15.50" length="21.55" shape="92.95,624.83 114.53,624.71"/>
    </edge>
    <edge id=":J1_0_20" function="internal">
        <lane id=":J1_0_20_0" index="0" speed="9.84" length="3.89" shape="92.95,624.83 96.78,625.52"/>
    </edge>
    <edge id=":J1_0_21" function="internal">
        <lane id=":J1_0_21_0" index="0" speed="3.65" length="1.44" shape="92.95,624.83 94.15,625.63"/>
    </edge>
    <edge id=":J1_0_28" function="internal">
        <lane id=":J1_0_28_0" index="0" speed="9.84" length="18.10" shape="96.78,625.52 98.20,625.78 101.95,628.63 104.20,633.38 104.95,640.03"/>
    </edge>
    <edge id=":J1_0_29" function="internal">
        <lane id=":J1_0_29_0" index="0" speed="3.65" length="3.23" shape="94.15,625.63 94.55,626.43 94.15,627.23 92.95,628.03"/>
    </edge>
    <edge id=":J1_1_0" function="internal">
        <lane id=":J1_1_0_0" index="0" speed="6.48" length="9.03" shape="765.85,632.68 765.50,630.22 764.45,628.48 762.69,627.45 760.23,627.12"/>
    </edge>
    <edge id=":J1_1_1" function="internal">
        <lane id=":J1_1_1_0" index="0" speed="15.50" length="27.57" shape="765.85,632.68 766.10,605.05"/>
        <lane id=":J1_1_1_1" index="1" speed="15.50" length="27.57" shape="769.05,632.68 769.30,605.11"/>
        <lane id=":J1_1_1_2" index="2" speed="15.50" length="27.57" shape="772.25,632.68 772.50,605.17"/>
    </edge>
    <edge id=":J1_1_4" function="internal">
        <lane id=":J1_1_4_0" index="0" speed="10.41" length="5.32" shape="772.25,632.68 773.01,627.41"/>
    </edge>
    <edge id=":J1_1_5" function="internal">
        <lane id=":J1_1_5_0" index="0" speed="3.65" length="1.44" shape="772.25,632.68 773.05,631.48"/>
    </edge>
    <edge id=":J1_1_24" function="internal">
        <lane id=":J1_1_24_0" index="0" speed="10.41" length="19.42" shape="773.01,627.41 773.21,625.98 776.09,621.20 780.90,618.33 787.62,617.37"/>
    </edge>
    <edge id=":J1_1_25" function="internal">
        <lane id=":J1_1_25_0" index="0" speed="3.65" length="3.23" shape="773.05,631.48 773.85,631.08 774.65,631.48 775.45,632.68"/>
    </edge>
    <edge id=":J1_1_6" function="internal">
        <lane id=":J1_1_6_0" index="0" speed="6.58" length="9.26" shape="787.62,626.97 785.10,627.33 783.29,628.40 782.21,630.18 781.85,632.68"/>
    </edge>
    <edge id=":J1_1_7" function="internal">
        <lane id=":J1_1_7_0" index="0" speed="15.50" length="27.43" shape="787.62,626.97 760.23,627.12"/>
        <lane id=":J1_1_7_1" index="1" speed="15.50" length="27.43" shape="787.62,623.77 760.20,623.92"/>
        <lane id=":J1_1_7_2" index="2" speed="15.50" length="27.43" shape="787.62,620.57 760.16,620.72"/>
    </edge>
    <edge id=":J1_1_10" function="internal">
        <lane id=":J1_1_10_0" index="0" speed="10.34" length="4.82" shape="787.62,620.57 782.85,619.89"/>
    </edge>
    <edge id=":J1_1_11" function="internal">
        <lane id=":J1_1_11_0" index="0" speed="3.65" length="1.44" shape="787.62,620.57 786.42,619.77"/>
    </edge>
    <edge id=":J1_1_26" function="internal">
        <lane id=":J1_1_26_0" index="0" speed="10.34" length="19.90" shape="782.85,619.89 780.90,619.61 776.14,616.72 773.34,611.91 772.50,605.17"/>
    </edge>
    <edge id=":J1_1_27" function="internal">
        <lane id=":J1_1_27_0" index="0" speed="3.65" length="3.23" shape="786.42,619.77 786.02,618.97 786.42,618.17 787.62,617.37"/>
    </edge>
    <edge id=":J1_1_12" function="internal">
        <lane id=":J1_1_12_0" index="0" speed="6.47" length="9.03" shape="782.10,605.34 782.40,607.80 783.43,609.56 785.17,610.62 787.62,610.97"/>
    </edge>
    <edge id=":J1_1_13" function="internal">
        <lane id=":J1_1_13_0" index="0" speed="15.50" length="27.39" shape="782.10,605.34 781.85,632.68"/>
        <lane id=":J1_1_13_1" index="1" speed="15.50" length="27.39" shape="778.90,605.28 778.65,632.68"/>
        <lane id=":J1_1_13_2" index="2" speed="15.50" length="27.39" shape="775.70,605.23 775.45,632.68"/>
    </edge>
    <edge id=":J1_1_16" function="internal">
        <lane id=":J1_1_16_0" index="0" speed="10.55" length="4.76" shape="775.70,605.23 774.95,609.93"/>
    </edge>
    <edge id=":J1_1_17" function="internal">
        <lane id=":J1_1_17_0" index="0" speed="3.65" length="1.44" shape="775.70,605.23 774.88,606.41"/>
    </edge>
    <edge id=":J1_1_28" function="internal">
        <lane id=":J1_1_28_0" index="0" speed="10.55" length="20.10" shape="774.95,609.93 774.62,611.94 771.68,616.76 766.85,619.69 760.16,620.72"/>
    </edge>
    <edge id=":J1_1_29" function="internal">
        <lane id=":J1_1_29_0" index="0" speed="3.65" length="3.23" shape="774.88,606.41 774.07,606.80 773.28,606.38 772.50,605.17"/>
    </edge>
    <edge id=":J1_1_18" function="internal">
        <lane id=":J1_1_18_0" index="0" speed="6.79" length="9.71" shape="760.05,611.12 762.66,610.72 764.53,609.57 765.68,607.68 766.10,605.05"/>
    </edge>
    <edge id=":J1_1_19" function="internal">
        <lane id=":J1_1_19_0" index="0" speed="15.50" length="27.54" shape="760.05,611.12 787.62,610.97"/>
        <lane id=":J1_1_19_1" index="1" speed="15.50" length="27.54" shape="760.09,614.32 787.62,614.17"/>
        <lane id=":J1_1_19_2" index="2" speed="15.50" length="27.54" shape="760.13,617.52 787.62,617.37"/>
    </edge>
    <edge id=":J1_1_22" function="internal">
        <lane id=":J1_1_22_0" index="0" speed="10.35" length="5.20" shape="760.13,617.52 765.29,618.20"/>
    </edge>
    <edge id=":J1_1_23" function="internal">
        <lane id=":J1_1_23_0" index="0" speed="3.65" length="1.44" shape="760.13,617.52 761.33,618.31"/>
    </edge>
    <edge id=":J1_1_30" function="internal">
        <lane id=":J1_1_30_0" index="0" speed="10.35" length="19.44" shape="765.29,618.20 766.83,618.41 771.62,621.23 774.49,625.98 775.45,632.68"/>
    </edge>
    <edge id=":J1_1_31" function="internal">
        <lane id=":J1_1_31_0" index="0" speed="3.65" length="3.23" shape="761.33,618.31 761.74,619.10 761.35,619.91 760.16,620.72"/>
    </edge>
    <edge id=":N0_0" function="internal">
        <lane id=":N0_0_0" index="0" speed="3.65" length="4.67" shape="138.40,0.00 139.20,-1.20 140.00,-1.60 140.80,-1.20 141.60,0.00"/>
    </edge>
    <edge id=":N1_0" function="internal">
        <lane id=":N1_0_0" index="0" speed="3.65" length="4.67" shape="781.50,0.00 782.30,-1.20 783.10,-1.60 783.90,-1.20 784.70,0.00"/>
    </edge>
    <edge id=":S0_0" function="internal">
        <lane id=":S0_0_0" index="0" speed="3.65" length="4.67" shape="104.95,738.00 104.15,739.20 103.35,739.60 102.55,739.20 101.75,738.00"/>
    </edge>
    <edge id=":S1_0" function="internal">
        <lane id=":S1_0_0" index="0" speed="3.65" length="4.67" shape="775.45,738.00 774.65,739.20 773.85,739.60 773.05,739.20 772.25,738.00"/>
    </edge>
    <edge id=":W0_0" function="internal">
        <lane id=":W0_0_0" index="0" speed="3.65" length="4.67" shape="0.00,106.18 -1.20,105.38 -1.60,104.58 -1.20,103.78 0.00,102.98"/>
    </edge>
    <edge id=":W1_0" function="internal">
        <lane id=":W1_0_0" index="0" speed="3.65" length="4.67" shape="0.00,628.03 -1.20,627.23 -1.60,626.43 -1.20,625.63 0.00,624.83"/>
    </edge>

    <edge id="E0_to_J0_1" from="E0" to="J0_1" priority="-1">
        <lane id="E0_to_J0_1_0" index="0" speed="13.90" length="103.30" shape="900.00,111.73 796.70,111.73"/>
        <lane id="E0_to_J0_1_1" index="1" speed="13.90" length="103.30" shape="900.00,108.53 796.70,108.53"/>
    </edge>
    <edge id="E1_to_J1_1" from="E1" to="J1_1" priority="-1">
        <lane id="E1_to_J1_1_0" index="0" speed="15.50" length="112.38" shape="900.00,626.97 787.62,626.97"/>
        <lane id="E1_to_J1_1_1" index="1" speed="15.50" length="112.38" shape="900.00,623.77 787.62,623.77"/>
        <lane id="E1_to_J1_1_2" index="2" speed="15.50" length="112.38" shape="900.00,620.57 787.62,620.57"/>
    </edge>
    <edge id="J0_0_to_J0_1" from="J0_0" to="J0_1" priority="-1">
        <lane id="J0_0_to_J0_1_0" index="0" speed="13.90" length="619.03" shape="150.39,99.82 769.42,102.08"/>
        <lane id="J0_0_to_J0_1_1" index="1" speed="13.90" length="619.03" shape="150.38,103.02 769.41,105.28"/>
    </edge>
    <edge id="J0_0_to_J1_0" from="J0_0" to="J1_0" priority="-1">
        <lane id="J0_0_to_J1_0_0" index="0" speed="13.90" length="498.12" shape="144.03,115.75 109.13,612.65"/>
        <lane id="J0_0_to_J1_0_1" index="1" speed="13.90" length="498.12" shape="140.83,115.53 105.94,612.42"/>
    </edge>
    <edge id="J0_0_to_N0" from="J0_0" to="N0" priority="-1">
        <lane id="J0_0_to_N0_0" index="0" speed="13.90" length="94.18" shape="135.20,94.18 135.20,0.00"/>
        <lane id="J0_0_to_N0_1" index="1" speed="13.90" length="94.18" shape="138.40,94.18 138.40,0.00"/>
    </edge>
    <edge id="J0_0_to_W0" from="J0_0" to="W0" priority="-1">
        <lane id="J0_0_to_W0_0" index="0" speed="13.90" length="129.13" shape="129.13,109.38 0.00,109.38"/>
        <lane id="J0_0_to_W0_1" index="1" speed="13.90" length="129.13" shape="129.13,106.18 0.00,106.18"/>
    </edge>
    <edge id="J0_1_to_E0" from="J0_1" to="E0" priority="-1">
        <lane id="J0_1_to_E0_0" index="0" speed="13.90" length="103.30" shape="796.70,102.13 900.00,102.13"/>
        <lane id="J0_1_to_E0_1" index="1" speed="13.90" length="103.30" shape="796.70,105.33 900.00,105.33"/>
    </edge>
    <edge id="J0_1_to_J0_0" from="J0_1" to="J0_0" priority="-1">
        <lane id="J0_1_to_J0_0_0" index="0" speed="13.90" length="619.03" shape="769.39,111.68 150.36,109.42"/>
        <lane id="J0_1_to_J0_0_1" index="1" speed="13.90" length="619.03" shape="769.40,108.48 150.37,106.22"/>
    </edge>
    <edge id="J0_1_to_J1_1" from="J0_1" to="J1_1" priority="-1">
        <lane id="J0_1_to_J1_1_0" index="0" speed="15.50" length="487.81" shape="790.91,117.61 782.10,605.34"/>
        <lane id="J0_1_to_J1_1_1" index="1" speed="15.50" length="487.81" shape="787.71,117.55 778.90,605.28"/>
        <lane id="J0_1_to_J1_1_2" index="2" speed="15.50" length="487.81" shape="784.51,117.50 775.70,605.23"/>
    </edge>
    <edge id="J0_1_to_N1" from="J0_1" to="N1" priority="-1">
        <lane id="J0_1_to_N1_0" index="0" speed="15.50" length="96.49" shape="775.10,96.49 775.10,0.00"/>
        <lane id="J0_1_to_N1_1" index="1" speed="15.50" length="96.49" shape="778.30,96.49 778.30,0.00"/>
        <lane id="J0_1_to_N1_2" index="2" speed="15.50" length="96.49" shape="781.50,96.49 781.50,0.00"/>
    </edge>
    <edge id="J1_0_to_J0_0" from="J1_0" to="J0_0" priority="-1">
        <lane id="J1_0_to_J0_0_0" index="0" speed="13.90" length="498.12" shape="99.55,611.98 134.45,115.08"/>
        <lane id="J1_0_to_J0_0_1" index="1" speed="13.90" length="498.12" shape="102.75,612.20 137.64,115.31"/>
    </edge>
    <edge id="J1_0_to_J1_1" from="J1_0" to="J1_1" priority="-1">
        <lane id="J1_0_to_J1_1_0" index="0" speed="15.50" length="645.63" shape="114.46,618.31 760.05,611.12"/>
        <lane id="J1_0_to_J1_1_1" index="1" speed="15.50" length="645.63" shape="114.50,621.51 760.09,614.32"/>
        <lane id="J1_0_to_J1_1_2" index="2" speed="15.50" length="645.63" shape="114.53,624.71 760.13,617.52"/>
    </edge>
    <edge id="J1_0_to_S0" from="J1_0" to="S0" priority="-1">
        <lane id="J1_0_to_S0_0" index="0" speed="13.90" length="97.97" shape="108.15,640.03 108.15,738.00"/>
        <lane id="J1_0_to_S0_1" index="1" speed="13.90" length="97.97" shape="104.95,640.03 104.95,738.00"/>
    </edge>
    <edge id="J1_0_to_W1" from="J1_0" to="W1" priority="-1">
        <lane id="J1_0_to_W1_0" index="0" speed="15.50" length="92.95" shape="92.95,634.43 0.00,634.43"/>
        <lane id="J1_0_to_W1_1" index="1" speed="15.50" length="92.95" shape="92.95,631.23 0.00,631.23"/>
        <lane id="J1_0_to_W1_2" index="2" speed="15.50" length="92.95" shape="92.95,628.03 0.00,628.03"/>
    </edge>
    <edge id="J1_1_to_E1" from="J1_1" to="E1" priority="-1">
        <lane id="J1_1_to_E1_0" index="0" speed="15.50" length="112.38" shape="787.62,610.97 900.00,610.97"/>
        <lane id="J1_1_to_E1_1" index="1" speed="15.50" length="112.38" shape="787.62,614.17 900.00,614.17"/>
        <lane id="J1_1_to_E1_2" index="2" speed="15.50" length="112.38" shape="787.62,617.37 900.00,617.37"/>
    </edge>
    <edge id="J1_1_to_J0_1" from="J1_1" to="J0_1" priority="-1">
        <lane id="J1_1_to_J0_1_0" index="0" speed="15.50" length="487.81" shape="766.10,605.05 774.91,117.32"/>
        <lane id="J1_1_to_J0_1_1" index="1" speed="15.50" length="487.81" shape="769.30,605.11 778.11,117.38"/>
        <lane id="J1_1_to_J0_1_2" index="2" speed="15.50" length="487.81" shape="772.50,605.17 781.31,117.44"/>
    </edge>
    <edge id="J1_1_to_J1_0" from="J1_1" to="J1_0" priority="-1">
        <lane id="J1_1_to_J1_0_0" index="0" speed="15.50" length="645.63" shape="760.23,627.12 114.64,634.30"/>
        <lane id="J1_1_to_J1_0_1" index="1" speed="15.50" length="645.63" shape="760.20,623.92 114.61,631.11"/>
        <lane id="J1_1_to_J1_0_2" index="2" speed="15.50" length="645.63" shape="760.16,620.72 114.57,627.91"/>
    </edge>
    <edge id="J1_1_to_S1" from="J1_1" to="S1" priority="-1">
        <lane id="J1_1_to_S1_0" index="0" speed="15.50" length="105.32" shape="781.85,632.68 781.85,738.00"/>
        <lane id="J1_1_to_S1_1" index="1" speed="15.50" length="105.32" shape="778.65,632.68 778.65,738.00"/>
        <lane id="J1_1_to_S1_2" index="2" speed="15.50" length="105.32" shape="775.45,632.68 775.45,738.00"/>
    </edge>
    <edge id="N0_to_J0_0" from="N0" to="J0_0" priority="-1">
        <lane id="N0_to_J0_0_0" index="0" speed="13.90" length="94.18" shape="144.80,0.00 144.80,94.18"/>
        <lane id="N0_to_J0_0_1" index="1" speed="13.90" length="94.18" shape="141.60,0.00 141.60,94.18"/>
    </edge>
    <edge id="N1_to_J0_1" from="N1" to="J0_1" priority="-1">
        <lane id="N1_to_J0_1_0" index="0" speed="15.50" length="96.49" shape="791.10,0.00 791.10,96.49"/>
        <lane id="N1_to_J0_1_1" index="1" speed="15.50" length="96.49" shape="787.90,0.00 787.90,96.49"/>
        <lane id="N1_to_J0_1_2" index="2" speed="15.50" length="96.49" shape="784.70,0.00 784.70,96.49"/>
    </edge>
    <edge id="S0_to_J1_0" from="S0" to="J1_0" priority="-1">
        <lane id="S0_to_J1_0_0" index="0" speed="13.90" length="97.97" shape="98.55,738.00 98.55,640.03"/>
        <lane id="S0_to_J1_0_1" index="1" speed="13.90" length="97.97" shape="101.75,738.00 101.75,640.03"/>
    </edge>
    <edge id="S1_to_J1_1" from="S1" to="J1_1" priority="-1">
        <lane id="S1_to_J1_1_0" index="0" speed="15.50" length="105.32" shape="765.85,738.00 765.85,632.68"/>
        <lane id="S1_to_J1_1_1" index="1" speed="15.50" length="105.32" shape="769.05,738.00 769.05,632.68"/>