<nodes>
    <node id="J0_0" x="0" y="0" type="traffic_light"/>
    <node id="J0_1" x="200" y="0" type="traffic_light"/>
    <node id="J0_2" x="400" y="0" type="traffic_light"/>
    <node id="J0_3" x="600" y="0" type="traffic_light"/>
    <node id="J1_0" x="0" y="200" type="traffic_light"/>
    <node id="J1_1" x="200" y="200" type="traffic_light"/>
    <node id="J1_2" x="400" y="200" type="traffic_light"/>
    <node id="J1_3" x="600" y="200" type="traffic_light"/>
    <node id="J2_0" x="0" y="400" type="traffic_light"/>
    <node id="J2_1" x="200" y="400" type="traffic_light"/>
    <node id="J2_2" x="400" y="400" type="traffic_light"/>
    <node id="J2_3" x="600" y="400" type="traffic_light"/>
    <node id="J3_0" x="0" y="600" type="traffic_light"/>
    <node id="J3_1" x="200" y="600" type="traffic_light"/>
    <node id="J3_2" x="400" y="600" type="traffic_light"/>
    <node id="J3_3" x="600" y="600" type="traffic_light"/>
</nodes>