<edges>
    <edge id="J0_0_to_J0_1" from="J0_0" to="J0_1" numLanes="2" speed="13.9"/>
    <edge id="J0_1_to_J0_0" from="J0_1" to="J0_0" numLanes="2" speed="13.9"/>
    <edge id="J0_1_to_J0_2" from="J0_1" to="J0_2" numLanes="2" speed="13.9"/>
    <edge id="J0_2_to_J0_1" from="J0_2" to="J0_1" numLanes="2" speed="13.9"/>
    <edge id="J1_0_to_J1_1" from="J1_0" to="J1_1" numLanes="2" speed="13.9"/>
    <edge id="J1_1_to_J1_0" from="J1_1" to="J1_0" numLanes="2" speed="13.9"/>
    <edge id="J1_1_to_J1_2" from="J1_1" to="J1_2" numLanes="2" speed="13.9"/>
    <edge id="J1_2_to_J1_1" from="J1_2" to="J1_1" numLanes="2" speed="13.9"/>
    <edge id="J2_0_to_J2_1" from="J2_0" to="J2_1" numLanes="3" speed="15.5"/>
    <edge id="J2_1_to_J2_0" from="J2_1" to="J2_0" numLanes="3" speed="15.5"/>
    <edge id="J2_1_to_J2_2" from="J2_1" to="J2_2" numLanes="3" speed="15.5"/>
    <edge id="J2_2_to_J2_1" from="J2_2" to="J2_1" numLanes="3" speed="15.5"/>
    <edge id="J3_0_to_J3_1" from="J3_0" to="J3_1" numLanes="2" speed="13.9"/>
    <edge id="J3_1_to_J3_0" from="J3_1" to="J3_0" numLanes="2" speed="13.9"/>
    <edge id="J3_1_to_J3_2" from="J3_1" to="J3_2" numLanes="2" speed="13.9"/>
    <edge id="J3_2_to_J3_1" from="J3_2" to="J3_1" numLanes="2" speed="13.9"/>
    <edge id="J0_0_to_J1_0" from="J0_0" to="J1_0" numLanes="2" speed="13.9"/>
    <edge id="J1_0_to_J0_0" from="J1_0" to="J0_0" numLanes="2" speed="13.9"/>
    <edge id="J1_0_to_J2_0" from="J1_0" to="J2_0" numLanes="2" speed="13.9"/>
    <edge id="J2_0_to_J1_0" from="J2_0" to="J1_0" numLanes="2" speed="13.9"/>
    <edge id="J2_0_to_J3_0" from="J2_0" to="J3_0" numLanes="2" speed="13.9"/>
    <edge id="J3_0_to_J2_0" from="J3_0" to="J2_0" numLanes="2" speed="13.9"/>
    <edge id="J0_1_to_J1_1" from="J0_1" to="J1_1" numLanes="3" speed="15.5"/>
    <edge id="J1_1_to_J0_1" from="J1_1" to="J0_1" numLanes="3" speed="15.5"/>
    <edge id="J1_1_to_J2_1" from="J1_1" to="J2_1" numLanes="3" speed="15.5"/>
    <edge id="J2_1_to_J1_1" from="J2_1" to="J1_1" numLanes="3" speed="15.5"/>
    <edge id="J2_1_to_J3_1" from="J2_1" to="J3_1" numLanes="3" speed="15.5"/>
    <edge id="J3_1_to_J2_1" from="J3_1" to="J2_1" numLanes="3" speed="15.5"/>
    <edge id="J0_2_to_J1_2" from="J0_2" to="J1_2" numLanes="2" speed="13.9"/>
    <edge id="J1_2_to_J0_2" from="J1_2" to="J0_2" numLanes="2" speed="13.9"/>
    <edge id="J1_2_to_J2_2" from="J1_2" to="J2_2" numLanes="2" speed="13.9"/>
    <edge id="J2_2_to_J1_2" from="J2_2" to="J1_2" numLanes="2" speed="13.9"/>
    <edge id="J2_2_to_J3_2" from="J2_2" to="J3_2" numLanes="2" speed="13.9"/>
    <edge id="J3_2_to_J2_2" from="J3_2" to="J2_2" numLanes="2" speed="13.9"/>
    <edge id="W0_to_J0_0" from="W0" to="J0_0" numLanes="2" speed="13.9"/>
    <edge id="J0_0_to_W0" from="J0_0" to="W0" numLanes="2" speed="13.9"/>
    <edge id="J0_2_to_E0" from="J0_2" to="E0" numLanes="2" speed="13.9"/>
    <edge id="E0_to_J0_2" from="E0" to="J0_2" numLanes="2" speed="13.9"/>
    <edge id="W1_to_J1_0" from="W1" to="J1_0" numLanes="2" speed="13.9"/>
    <edge id="J1_0_to_W1" from="J1_0" to="W1" numLanes="2" speed="13.9"/>
    <edge id="J1_2_to_E1" from="J1_2" to="E1" numLanes="2" speed="13.9"/>
    <edge id="E1_to_J1_2" from="E1" to="J1_2" numLanes="2" speed="13.9"/>
    <edge id="W2_to_J2_0" from="W2" to="J2_0" numLanes="3" speed="15.5"/>
    <edge id="J2_0_to_W2" from="J2_0" to="W2" numLanes="3" speed="15.5"/>
    <edge id="J2_2_to_E2" from="J2_2" to="E2" numLanes="3" speed="15.5"/>
    <edge id="E2_to_J2_2" from="E2" to="J2_2" numLanes="3" speed="15.5"/>
    <edge id="W3_to_J3_0" from="W3" to="J3_0" numLanes="2" speed="13.9"/>
    <edge id="J3_0_to_W3" from="J3_0" to="W3" numLanes="2" speed="13.9"/>
    <edge id="J3_2_to_E3" from="J3_2" to="E3" numLanes="2" speed="13.9"/>
    <edge id="E3_to_J3_2" from="E3" to="J3_2" numLanes="2" speed="13.9"/>
    <edge id="N0_to_J0_0" from="N0" to="J0_0" numLanes="2" speed="13.9"/>
    <edge id="J0_0_to_N0" from="J0_0" to="N0" numLanes="2" speed="13.9"/>
    <edge id="J3_0_to_S0" from="J3_0" to="S0" numLanes="2" speed="13.9"/>
    <edge id="S0_to_J3_0" from="S0" to="J3_0" numLanes="2" speed="13.9"/>
    <edge id="N1_to_J0_1" from="N1" to="J0_1" numLanes="3" speed="15.5"/>
    <edge id="J0_1_to_N1" from="J0_1" to="N1" numLanes="3" speed="15.5"/>
    <edge id="J3_1_to_S1" from="J3_1" to="S1" numLanes="3" speed="15.5"/>
    <edge id="S1_to_J3_1" from="S1" to="J3_1" numLanes="3" speed="15.5"/>
    <edge id="N2_to_J0_2" from="N2" to="J0_2" numLanes="2" speed="13.9"/>
    <edge id="J0_2_to_N2" from="J0_2" to="N2" numLanes="2" speed="13.9"/>
    <edge id="J3_2_to_S2" from="J3_2" to="S2" numLanes="2" speed="13.9"/>
    <edge id="S2_to_J3_2" from="S2" to="J3_2" numLanes="2" speed="13.9"/>
    <edge id="J0_0_to_J1_1" from="J0_0" to="J1_1" numLanes="2" speed="12.0"/>
    <edge id="J1_1_to_J0_0" from="J1_1" to="J0_0" numLanes="2" speed="12.0"/>
    <edge id="J3_0_to_J2_1" from="J3_0" to="J2_1" numLanes="2" speed="12.0"/>
    <edge id="J2_1_to_J3_0" from="J2_1" to="J3_0" numLanes="2" speed="12.0"/>
    <edge id="J0_2_to_J1_1" from="J0_2" to="J1_1" numLanes="2" speed="12.0"/>
    <edge id="J1_1_to_J0_2" from="J1_1" to="J0_2" numLanes="2" speed="12.0"/>
</edges>