<?xml version="1.0" encoding="UTF-8"?>

<!-- generated on 2026-04-11T21:03:02.920045+05:30 by Eclipse SUMO netconvert 1.26.0
<netconvertConfiguration xmlns:xsi="http://www.w3.org/2001/XMLSchema-instance" xsi:noNamespaceSchemaLocation="http://sumo.dlr.de/xsd/netconvertConfiguration.xsd">

    <input>
        <node-files value="C:\Users\santhosh\OneDrive\Desktop\trafiic pro\web_runs\20260411_210302_712738\area.nod.xml"/>
        <edge-files value="C:\Users\santhosh\OneDrive\Desktop\trafiic pro\web_runs\20260411_210302_712738\area.edg.xml"/>
    </input>

    <output>
        <output-file value="C:\Users\santhosh\OneDrive\Desktop\trafiic pro\web_runs\20260411_210302_712738\area.net.xml"/>
    </output>

</netconvertConfiguration>
-->

<net version="1.20" junctionCornerDetail="5" limitTurnSpeed="5.50" xmlns:xsi="http://www.w3.org/2001/XMLSchema-instance" xsi:noNamespaceSchemaLocation="http://sumo.dlr.de/xsd/net_file.xsd">

    <location netOffset="0.00,0.00" convBoundary="0.00,0.00,900.00,1293.00" origBoundary="0.00,0.00,900.00,1293.00" projParameter="!"/>

    <edge id=":E0_0" function="internal">
        <lane id=":E0_0_0" index="0" speed="3.65" length="4.67" shape="900.00,126.83 901.20,127.63 901.60,128.43 901.20,129.23 900.00,130.03"/>
    </edge>
    <edge id=":E1_0" function="internal">
        <lane id=":E1_0_0" index="0" speed="3.65" length="4.67" shape="900.00,459.30 901.20,460.10 901.60,460.90 901.20,461.70 900.00,462.50"/>
    </edge>
    <edge id=":E2_0" function="internal">
        <lane id=":E2_0_0" index="0" speed="3.65" length="4.67" shape="900.00,802.50 901.20,803.30 901.60,804.10 901.20,804.90 900.00,805.70"/>
    </edge>
    <edge id=":E3_0" function="internal">
        <lane id=":E3_0_0" index="0" speed="3.65" length="4.67" shape="900.00,1164.73 901.20,1165.53 901.60,1166.33 901.20,1167.13 900.00,1167.93"/>
    </edge>
    <edge id=":J0_0_0" function="internal">
        <lane id=":J0_0_0_0" index="0" speed="5.48" length="9.73" shape="148.65,122.58 146.42,120.42 144.71,119.99 143.54,121.30 142.89,124.34"/>
    </edge>
    <edge id=":J0_0_1" function="internal">
        <lane id=":J0_0_1_0" index="0" speed="12.95" length="24.38" shape="148.65,122.58 143.33,116.80 138.27,112.68 133.47,110.20 128.94,109.38"/>
    </edge>
    <edge id=":J0_0_2" function="internal">
        <lane id=":J0_0_2_0" index="0" speed="12.95" length="30.90" shape="148.65,122.58 143.86,116.29 139.54,109.24 136.41,101.75 135.20,94.18"/>
        <lane id=":J0_0_2_1" index="1" speed="12.95" length="30.90" shape="151.12,120.54 146.44,114.57 142.37,108.22 139.49,101.43 138.40,94.18"/>
    </edge>
    <edge id=":J0_0_4" function="internal">
        <lane id=":J0_0_4_0" index="0" speed="8.43" length="24.35" shape="151.12,120.54 147.92,114.44 148.07,108.80 151.41,104.68 157.74,103.11"/>
    </edge>
    <edge id=":J0_0_5" function="internal">
        <lane id=":J0_0_5_0" index="0" speed="3.65" length="2.34" shape="151.12,120.54 150.97,119.10 151.33,118.28"/>
    </edge>
    <edge id=":J0_0_30" function="internal">
        <lane id=":J0_0_30_0" index="0" speed="3.65" length="2.34" shape="151.33,118.28 152.21,118.08 153.59,118.50"/>
    </edge>
    <edge id=":J0_0_6" function="internal">
        <lane id=":J0_0_6_0" index="0" speed="5.79" length="10.62" shape="157.70,109.51 154.81,109.93 153.57,111.22 153.98,113.40 156.05,116.46"/>
    </edge>
    <edge id=":J0_0_7" function="internal">
        <lane id=":J0_0_7_0" index="0" speed="10.49" length="23.43" shape="157.70,109.51 151.77,110.40 147.32,113.17 144.36,117.82 142.89,124.34"/>
    </edge>
    <edge id=":J0_0_8" function="internal">
        <lane id=":J0_0_8_0" index="0" speed="13.90" length="28.76" shape="157.70,109.51 128.94,109.38"/>
        <lane id=":J0_0_8_1" index="1" speed="13.90" length="28.76" shape="157.72,106.31 128.94,106.18"/>
    </edge>
    <edge id=":J0_0_10" function="internal">
        <lane id=":J0_0_10_0" index="0" speed="10.60" length="7.72" shape="157.72,106.31 150.03,105.57"/>
    </edge>
    <edge id=":J0_0_11" function="internal">
        <lane id=":J0_0_11_0" index="0" speed="3.65" length="1.44" shape="157.72,106.31 156.53,105.50"/>
    </edge>
    <edge id=":J0_0_31" function="internal">
        <lane id=":J0_0_31_0" index="0" speed="10.60" length="17.85" shape="150.03,105.57 149.27,105.50 143.23,103.21 139.61,99.43 138.40,94.18"/>
    </edge>
    <edge id=":J0_0_32" function="internal">
        <lane id=":J0_0_32_0" index="0" speed="3.65" length="3.23" shape="156.53,105.50 156.13,104.70 156.54,103.90 157.74,103.11"/>
    </edge>
    <edge id=":J0_0_12" function="internal">
        <lane id=":J0_0_12_0" index="0" speed="8.36" length="15.50" shape="144.80,94.18 145.61,96.65 148.04,98.43 152.09,99.52 157.77,99.91"/>
    </edge>
    <edge id=":J0_0_13" function="internal">
        <lane id=":J0_0_13_0" index="0" speed="12.95" length="25.60" shape="144.80,94.18 145.66,100.80 148.04,106.18 151.61,111.13 156.05,116.46"/>
    </edge>
    <edge id=":J0_0_14" function="internal">
        <lane id=":J0_0_14_0" index="0" speed="13.90" length="30.07" shape="144.80,94.18 144.64,101.71 144.21,109.28 143.60,116.83 142.89,124.34"/>
        <lane id=":J0_0_14_1" index="1" speed="13.90" length="30.07" shape="141.60,94.18 141.44,101.66 141.02,109.12 140.41,116.57 139.71,124.03"/>
    </edge>
    <edge id=":J0_0_16" function="internal">
        <lane id=":J0_0_16_0" index="0" speed="9.38" length="5.31" shape="141.60,94.18 140.81,99.43"/>
    </edge>
    <edge id=":J0_0_17" function="internal">
        <lane id=":J0_0_17_0" index="0" speed="3.65" length="1.44" shape="141.60,94.18 140.80,95.38"/>
    </edge>
    <edge id=":J0_0_33" function="internal">
        <lane id=":J0_0_33_0" index="0" speed="9.38" length="14.58" shape="140.81,99.43 138.44,103.18 134.48,105.43 128.94,106.18"/>
    </edge>
    <edge id=":J0_0_34" function="internal">
        <lane id=":J0_0_34_0" index="0" speed="3.65" length="3.23" shape="140.80,95.38 140.00,95.78 139.20,95.38 138.40,94.18"/>
    </edge>
    <edge id=":J0_0_18" function="internal">
        <lane id=":J0_0_18_0" index="0" speed="6.68" length="9.57" shape="128.94,99.78 131.68,99.43 133.64,98.38 134.81,96.63 135.20,94.18"/>
    </edge>
    <edge id=":J0_0_19" function="internal">
        <lane id=":J0_0_19_0" index="0" speed="13.90" length="28.81" shape="128.94,99.78 157.77,99.91"/>
        <lane id=":J0_0_19_1" index="1" speed="13.90" length="28.81" shape="128.94,102.98 157.74,103.11"/>
    </edge>
    <edge id=":J0_0_21" function="internal">
        <lane id=":J0_0_21_0" index="0" speed="12.95" length="4.56" shape="128.94,102.98 133.45,103.71"/>
    </edge>
    <edge id=":J0_0_22" function="internal">
        <lane id=":J0_0_22_0" index="0" speed="10.59" length="3.32" shape="128.94,102.98 132.18,103.72"/>
    </edge>
    <edge id=":J0_0_23" function="internal">
        <lane id=":J0_0_23_0" index="0" speed="3.65" length="1.44" shape="128.94,102.98 130.14,103.78"/>
    </edge>
    <edge id=":J0_0_35" function="internal">
        <lane id=":J0_0_35_0" index="0" speed="12.95" length="25.43" shape="133.45,103.71 134.91,103.95 141.01,106.86 147.23,111.71 153.59,118.50"/>
    </edge>
    <edge id=":J0_0_36" function="internal">
        <lane id=":J0_0_36_0" index="0" speed="10.59" length="24.21" shape="132.18,103.72 135.31,104.43 138.81,108.60 140.07,115.22 139.71,124.03"/>
    </edge>
    <edge id=":J0_0_37" function="internal">
        <lane id=":J0_0_37_0" index="0" speed="3.65" length="3.23" shape="130.14,103.78 130.54,104.58 130.14,105.38 128.94,106.18"/>
    </edge>
    <edge id=":J0_0_24" function="internal">
        <lane id=":J0_0_24_0" index="0" speed="8.23" length="16.21" shape="133.34,123.40 133.58,117.27 132.92,112.89 131.38,110.26 128.94,109.38"/>
    </edge>
    <edge id=":J0_0_25" function="internal">
        <lane id=":J0_0_25_0" index="0" speed="13.90" length="29.45" shape="133.34,123.40 134.04,116.05 134.63,108.81 135.05,101.57 135.20,94.18"/>
        <lane id=":J0_0_25_1" index="1" speed="13.90" length="29.45" shape="136.52,123.72 137.23,116.31 137.83,108.97 138.24,101.61 138.40,94.18"/>
    </edge>
    <edge id=":J0_0_27" function="internal">
        <lane id=":J0_0_27_0" index="0" speed="12.40" length="5.39" shape="136.52,123.72 137.73,118.47"/>
    </edge>
    <edge id=":J0_0_28" function="internal">
        <lane id=":J0_0_28_0" index="0" speed="8.15" length="2.92" shape="136.52,123.72 137.51,120.97"/>
    </edge>
    <edge id=":J0_0_29" function="internal">
        <lane id=":J0_0_29_0" index="0" speed="3.65" length="1.44" shape="136.52,123.72 137.43,122.60"/>
    </edge>
    <edge id=":J0_0_38" function="internal">
        <lane id=":J0_0_38_0" index="0" speed="12.40" length="27.70" shape="137.73,118.47 138.61,114.65 142.84,108.19 149.22,104.35 157.74,103.11"/>
    </edge>
    <edge id=":J0_0_39" function="internal">
        <lane id=":J0_0_39_0" index="0" speed="8.15" length="20.64" shape="137.51,120.97 138.71,117.66 143.05,114.54 148.39,114.70 153.59,118.50"/>
    </edge>
    <edge id=":J0_0_40" function="internal">
        <lane id=":J0_0_40_0" index="0" speed="3.65" length="3.23" shape="137.43,122.60 138.27,122.28 139.03,122.76 139.71,124.03"/>
    </edge>
    <edge id=":J0_1_0" function="internal">
        <lane id=":J0_1_0_0" index="0" speed="6.41" length="9.04" shape="466.63,112.68 464.14,112.86 462.35,113.80 461.24,115.50 460.82,117.96"/>
    </edge>
    <edge id=":J0_1_1" function="internal">
        <lane id=":J0_1_1_0" index="0" speed="13.90" length="27.40" shape="466.63,112.68 439.35,111.63"/>
        <lane id=":J0_1_1_1" index="1" speed="13.90" length="27.40" shape="466.85,109.49 439.37,108.43"/>
    </edge>
    <edge id=":J0_1_3" function="internal">
        <lane id=":J0_1_3_0" index="0" speed="10.22" length="5.06" shape="466.85,109.49 461.87,108.59"/>
    </edge>
    <edge id=":J0_1_4" function="internal">
        <lane id=":J0_1_4_0" index="0" speed="3.65" length="1.44" shape="466.85,109.49 465.70,108.61"/>
    </edge>
    <edge id=":J0_1_22" function="internal">
        <lane id=":J0_1_22_0" index="0" speed="10.22" length="17.47" shape="461.87,108.59 460.13,108.27 455.34,105.70 452.46,101.76 451.50,96.46"/>
    </edge>
    <edge id=":J0_1_23" function="internal">
        <lane id=":J0_1_23_0" index="0" speed="3.65" length="3.23" shape="465.70,108.61 465.36,107.78 465.82,107.01 467.07,106.29"/>
    </edge>
    <edge id=":J0_1_5" function="internal">
        <lane id=":J0_1_5_0" index="0" speed="7.05" length="10.20" shape="461.10,96.46 461.49,99.20 462.65,101.23 464.58,102.53 467.29,103.10"/>
    </edge>
    <edge id=":J0_1_6" function="internal">
        <lane id=":J0_1_6_0" index="0" speed="15.50" length="21.42" shape="461.10,96.46 460.82,117.96"/>
        <lane id=":J0_1_6_1" index="1" speed="15.50" length="21.42" shape="457.90,96.46 457.62,117.88"/>
        <lane id=":J0_1_6_2" index="2" speed="15.50" length="21.42" shape="454.70,96.46 454.43,117.79"/>
    </edge>
    <edge id=":J0_1_9" function="internal">
        <lane id=":J0_1_9_0" index="0" speed="9.84" length="4.29" shape="454.70,96.46 453.93,100.68"/>
    </edge>
    <edge id=":J0_1_10" function="internal">
        <lane id=":J0_1_10_0" index="0" speed="3.65" length="1.44" shape="454.70,96.46 453.90,97.66"/>
    </edge>
    <edge id=":J0_1_24" function="internal">
        <lane id=":J0_1_24_0" index="0" speed="9.84" length="17.83" shape="453.93,100.68 453.74,101.74 450.87,105.49 446.08,107.72 439.37,108.43"/>
    </edge>
    <edge id=":J0_1_25" function="internal">
        <lane id=":J0_1_25_0" index="0" speed="3.65" length="3.23" shape="453.90,97.66 453.10,98.06 452.30,97.66 451.50,96.46"/>
    </edge>
    <edge id=":J0_1_11" function="internal">
        <lane id=":J0_1_11_0" index="0" speed="6.51" length="9.09" shape="439.42,102.03 441.91,101.70 443.68,100.66 444.75,98.91 445.10,96.46"/>
    </edge>
    <edge id=":J0_1_12" function="internal">
        <lane id=":J0_1_12_0" index="0" speed="13.90" length="27.79" shape="439.42,102.03 467.29,103.10"/>
        <lane id=":J0_1_12_1" index="1" speed="13.90" length="27.79" shape="439.40,105.23 467.07,106.29"/>
    </edge>
    <edge id=":J0_1_14" function="internal">
        <lane id=":J0_1_14_0" index="0" speed="9.85" length="6.94" shape="439.40,105.23 446.09,106.06 446.26,106.14"/>
    </edge>
    <edge id=":J0_1_15" function="internal">
        <lane id=":J0_1_15_0" index="0" speed="3.65" length="1.44" shape="439.40,105.23 440.59,106.04"/>
    </edge>
    <edge id=":J0_1_26" function="internal">
        <lane id=":J0_1_26_0" index="0" speed="9.85" length="15.42" shape="446.26,106.14 450.83,108.43 453.60,112.34 454.43,117.79"/>
    </edge>
    <edge id=":J0_1_27" function="internal">
        <lane id=":J0_1_27_0" index="0" speed="3.65" length="3.23" shape="440.59,106.04 440.98,106.84 440.58,107.64 439.37,108.43"/>
    </edge>
    <edge id=":J0_1_16" function="internal">
        <lane id=":J0_1_16_0" index="0" speed="6.53" length="9.24" shape="444.83,117.55 444.54,114.98 443.53,113.13 441.80,112.01 439.35,111.63"/>
    </edge>
    <edge id=":J0_1_17" function="internal">
        <lane id=":J0_1_17_0" index="0" speed="15.50" length="21.18" shape="444.83,117.55 445.10,96.46"/>
        <lane id=":J0_1_17_1" index="1" speed="15.50" length="21.18" shape="448.03,117.63 448.30,96.46"/>
        <lane id=":J0_1_17_2" index="2" speed="15.50" length="21.18" shape="451.23,117.71 451.50,96.46"/>
    </edge>
    <edge id=":J0_1_20" function="internal">
        <lane id=":J0_1_20_0" index="0" speed="9.77" length="3.80" shape="451.23,117.71 451.99,113.99"/>
    </edge>
    <edge id=":J0_1_21" function="internal">
        <lane id=":J0_1_21_0" index="0" speed="3.65" length="1.44" shape="451.23,117.71 452.06,116.53"/>
    </edge>
    <edge id=":J0_1_28" function="internal">
        <lane id=":J0_1_28_0" index="0" speed="9.77" length="18.61" shape="451.99,113.99 452.34,112.31 455.34,108.61 460.26,106.60 467.07,106.29"/>
    </edge>
    <edge id=":J0_1_29" function="internal">
        <lane id=":J0_1_29_0" index="0" speed="3.65" length="3.23" shape="452.06,116.53 452.87,116.15 453.66,116.57 454.43,117.79"/>
    </edge>
    <edge id=":J0_2_0" function="internal">
        <lane id=":J0_2_0_0" index="0" speed="5.51" length="9.53" shape="760.63,146.74 759.94,143.84 758.72,142.54 756.97,142.86 754.69,144.79"/>
    </edge>
    <edge id=":J0_2_1" function="internal">
        <lane id=":J0_2_1_0" index="0" speed="10.83" length="23.10" shape="760.63,146.74 759.10,140.65 756.09,136.16 751.61,133.28 745.65,132.02"/>
    </edge>
    <edge id=":J0_2_2" function="internal">
        <lane id=":J0_2_2_0" index="0" speed="13.90" length="29.08" shape="760.63,146.74 759.82,139.40 759.16,132.18 758.71,124.95 758.55,117.57"/>
        <lane id=":J0_2_2_1" index="1" speed="13.90" length="29.08" shape="763.81,146.37 763.01,139.09 762.35,132.00 761.91,124.89 761.75,117.57"/>
    </edge>
    <edge id=":J0_2_4" function="internal">
        <lane id=":J0_2_4_0" index="0" speed="10.19" length="7.93" shape="763.81,146.37 763.65,138.44"/>
    </edge>
    <edge id=":J0_2_5" function="internal">
        <lane id=":J0_2_5_0" index="0" speed="3.65" length="1.44" shape="763.81,146.37 764.47,145.09"/>
    </edge>
    <edge id=":J0_2_30" function="internal">
        <lane id=":J0_2_30_0" index="0" speed="10.19" length="17.80" shape="763.65,138.44 763.64,137.82 765.36,131.72 769.00,128.05 774.53,126.83"/>
    </edge>
    <edge id=":J0_2_31" function="internal">
        <lane id=":J0_2_31_0" index="0" speed="3.65" length="3.23" shape="764.47,145.09 765.22,144.60 766.06,144.91 766.99,146.01"/>
    </edge>
    <edge id=":J0_2_6" function="internal">
        <lane id=":J0_2_6_0" index="0" speed="7.83" length="14.72" shape="774.53,133.23 772.09,134.01 770.54,136.33 769.91,140.21 770.17,145.64"/>
    </edge>
    <edge id=":J0_2_7" function="internal">
        <lane id=":J0_2_7_0" index="0" speed="12.95" length="23.55" shape="774.53,133.23 769.88,133.95 765.03,136.12 759.96,139.73 754.69,144.79"/>
    </edge>
    <edge id=":J0_2_8" function="internal">
        <lane id=":J0_2_8_0" index="0" speed="13.90" length="28.79" shape="774.53,133.23 745.65,132.02"/>
        <lane id=":J0_2_8_1" index="1" speed="13.90" length="28.79" shape="774.53,130.03 745.88,128.82"/>
    </edge>
    <edge id=":J0_2_10" function="internal">
        <lane id=":J0_2_10_0" index="0" speed="9.48" length="5.84" shape="774.53,130.03 768.94,129.25 768.77,129.15"/>
    </edge>
    <edge id=":J0_2_11" function="internal">
        <lane id=":J0_2_11_0" index="0" speed="3.65" length="1.44" shape="774.53,130.03 773.33,129.23"/>
    </edge>
    <edge id=":J0_2_32" function="internal">
        <lane id=":J0_2_32_0" index="0" speed="9.48" length="14.51" shape="768.77,129.15 764.95,126.92 762.55,123.02 761.75,117.57"/>
    </edge>
    <edge id=":J0_2_33" function="internal">
        <lane id=":J0_2_33_0" index="0" speed="3.65" length="3.23" shape="773.33,129.23 772.93,128.43 773.33,127.63 774.53,126.83"/>
    </edge>
    <edge id=":J0_2_12" function="internal">
        <lane id=":J0_2_12_0" index="0" speed="6.82" length="10.03" shape="768.15,117.57 768.55,120.22 769.75,122.12 771.74,123.25 774.53,123.63"/>
    </edge>
    <edge id=":J0_2_13" function="internal">
        <lane id=":J0_2_13_0" index="0" speed="13.90" length="28.34" shape="768.15,117.57 768.30,124.78 768.73,131.63 769.37,138.47 770.17,145.64"/>
        <lane id=":J0_2_13_1" index="1" speed="13.90" length="28.34" shape="764.95,117.57 765.11,124.84 765.54,131.81 766.19,138.78 766.99,146.01"/>
    </edge>
    <edge id=":J0_2_15" function="internal">
        <lane id=":J0_2_15_0" index="0" speed="12.95" length="4.37" shape="764.95,117.57 764.33,121.90"/>
    </edge>
    <edge id=":J0_2_16" function="internal">
        <lane id=":J0_2_16_0" index="0" speed="10.26" length="3.07" shape="764.95,117.57 764.29,120.57"/>
    </edge>
    <edge id=":J0_2_17" function="internal">
        <lane id=":J0_2_17_0" index="0" speed="3.65" length="1.44" shape="764.95,117.57 764.15,118.77"/>
    </edge>
    <edge id=":J0_2_34" function="internal">
        <lane id=":J0_2_34_0" index="0" speed="12.95" length="24.34" shape="764.33,121.90 763.94,124.67 761.20,131.10 757.19,137.02 752.35,142.61"/>
    </edge>
    <edge id=":J0_2_35" function="internal">
        <lane id=":J0_2_35_0" index="0" speed="10.26" length="22.23" shape="764.29,120.57 763.76,122.99 760.18,126.67 754.22,128.62 745.88,128.82"/>
    </edge>
    <edge id=":J0_2_36" function="internal">
        <lane id=":J0_2_36_0" index="0" speed="3.65" length="3.23" shape="764.15,118.77 763.35,119.17 762.55,118.77 761.75,117.57"/>
    </edge>
    <edge id=":J0_2_18" function="internal">
        <lane id=":J0_2_18_0" index="0" speed="7.92" length="14.63" shape="746.32,122.44 751.67,122.45 755.49,121.65 757.79,120.02 758.55,117.57"/>
    </edge>
    <edge id=":J0_2_19" function="internal">
        <lane id=":J0_2_19_0" index="0" speed="13.90" length="28.35" shape="746.32,122.44 774.53,123.63"/>
        <lane id=":J0_2_19_1" index="1" speed="13.90" length="28.35" shape="746.10,125.63 774.53,126.83"/>
    </edge>
    <edge id=":J0_2_21" function="internal">
        <lane id=":J0_2_21_0" index="0" speed="12.70" length="4.29" shape="746.10,125.63 750.30,126.52"/>
    </edge>
    <edge id=":J0_2_22" function="internal">
        <lane id=":J0_2_22_0" index="0" speed="8.34" length="2.85" shape="746.10,125.63 748.82,126.47"/>
    </edge>
    <edge id=":J0_2_23" function="internal">
        <lane id=":J0_2_23_0" index="0" speed="3.65" length="1.44" shape="746.10,125.63 747.24,126.51"/>
    </edge>
    <edge id=":J0_2_37" function="internal">
        <lane id=":J0_2_37_0" index="0" speed="12.70" length="27.80" shape="750.30,126.52 754.41,127.39 760.67,131.37 764.86,137.58 766.99,146.01"/>
    </edge>
    <edge id=":J0_2_38" function="internal">
        <lane id=":J0_2_38_0" index="0" speed="8.34" length="20.74" shape="748.82,126.47 752.27,127.54 755.55,131.62 755.67,136.95 752.35,142.61"/>
    </edge>
    <edge id=":J0_2_39" function="internal">
        <lane id=":J0_2_39_0" index="0" speed="3.65" length="3.23" shape="747.24,126.51 747.58,127.34 747.13,128.11 745.88,128.82"/>
    </edge>
    <edge id=":J0_2_24" function="internal">
        <lane id=":J0_2_24_0" index="0" speed="5.61" length="9.78" shape="747.66,138.25 749.53,135.71 749.82,133.83 748.53,132.60 745.65,132.02"/>
    </edge>
    <edge id=":J0_2_25" function="internal">
        <lane id=":J0_2_25_0" index="0" speed="12.95" length="25.28" shape="747.66,138.25 752.23,133.34 755.66,128.92 757.81,123.99 758.55,117.57"/>
        <lane id=":J0_2_25_1" index="1" speed="12.95" length="25.28" shape="750.00,140.43 754.71,135.18 758.43,130.01 760.87,124.33 761.75,117.57"/>
    </edge>
    <edge id=":J0_2_27" function="internal">
        <lane id=":J0_2_27_0" index="0" speed="12.95" length="28.79" shape="750.00,140.43 756.28,134.48 762.46,130.23 768.54,127.68 774.53,126.83"/>
    </edge>
    <edge id=":J0_2_28" function="internal">
        <lane id=":J0_2_28_0" index="0" speed="8.26" length="23.39" shape="750.00,140.43 755.35,136.85 760.61,136.79 764.81,139.95 766.99,146.01"/>
    </edge>
    <edge id=":J0_2_29" function="internal">
        <lane id=":J0_2_29_0" index="0" speed="3.65" length="2.34" shape="750.00,140.43 751.41,140.10 752.26,140.35"/>
    </edge>
    <edge id=":J0_2_40" function="internal">
        <lane id=":J0_2_40_0" index="0" speed="3.65" length="2.34" shape="752.26,140.35 752.58,141.19 752.35,142.61"/>
    </edge>
    <edge id=":J1_0_0" function="internal">
        <lane id=":J1_0_0_0" index="0" speed="6.64" length="9.23" shape="98.87,490.03 98.45,487.49 97.35,485.68 95.58,484.59 93.14,484.23"/>
    </edge>
    <edge id=":J1_0_1" function="internal">
        <lane id=":J1_0_1_0" index="0" speed="13.90" length="22.06" shape="98.87,490.03 98.73,483.74 98.79,478.90 99.09,474.07 99.66,467.80"/>
        <lane id=":J1_0_1_1" index="1" speed="13.90" length="22.06" shape="102.07,489.93 101.93,483.70 101.98,479.01 102.27,474.32 102.85,468.11"/>
    </edge>
    <edge id=":J1_0_3" function="internal">
        <lane id=":J1_0_3_0" index="0" speed="9.38" length="4.94" shape="102.07,489.93 102.66,485.02"/>
    </edge>
    <edge id=":J1_0_4" function="internal">
        <lane id=":J1_0_4_0" index="0" speed="3.65" length="1.44" shape="102.07,489.93 102.83,488.71"/>
    </edge>
    <edge id=":J1_0_20" function="internal">
        <lane id=":J1_0_20_0" index="0" speed="9.38" length="15.09" shape="102.66,485.02 102.71,484.63 105.00,480.81 108.94,478.46 114.53,477.58"/>
    </edge>
    <edge id=":J1_0_21" function="internal">
        <lane id=":J1_0_21_0" index="0" speed="3.65" length="3.23" shape="102.83,488.71 103.62,488.28 104.43,488.66 105.27,489.83"/>
    </edge>
    <edge id=":J1_0_5" function="internal">
        <lane id=":J1_0_5_0" index="0" speed="6.68" length="9.65" shape="114.67,483.98 111.89,484.39 109.93,485.49 108.79,487.27 108.47,489.73"/>
    </edge>
    <edge id=":J1_0_6" function="internal">
        <lane id=":J1_0_6_0" index="0" speed="13.90" length="21.49" shape="114.67,483.98 93.14,484.23"/>
        <lane id=":J1_0_6_1" index="1" speed="13.90" length="21.49" shape="114.60,480.78 93.14,481.03"/>
    </edge>
    <edge id=":J1_0_8" function="internal">
        <lane id=":J1_0_8_0" index="0" speed="9.08" length="5.34" shape="114.60,480.78 109.29,480.14"/>
    </edge>
    <edge id=":J1_0_9" function="internal">
        <lane id=":J1_0_9_0" index="0" speed="3.65" length="1.44" shape="114.60,480.78 113.38,480.01"/>
    </edge>
    <edge id=":J1_0_22" function="internal">
        <lane id=":J1_0_22_0" index="0" speed="9.08" length="14.94" shape="109.29,480.14 108.98,480.10 105.15,477.76 103.11,473.76 102.85,468.11"/>
    </edge>
    <edge id=":J1_0_23" function="internal">
        <lane id=":J1_0_23_0" index="0" speed="3.65" length="3.23" shape="113.38,480.01 112.96,479.22 113.34,478.41 114.53,477.58"/>
    </edge>
    <edge id=":J1_0_10" function="internal">
        <lane id=":J1_0_10_0" index="0" speed="6.26" length="9.04" shape="109.22,468.74 109.33,471.26 110.25,473.04 111.95,474.08 114.46,474.39"/>
    </edge>
    <edge id=":J1_0_11" function="internal">
        <lane id=":J1_0_11_0" index="0" speed="13.90" length="21.24" shape="109.22,468.74 108.65,474.81 108.36,479.22 108.32,483.64 108.47,489.73"/>
        <lane id=":J1_0_11_1" index="1" speed="13.90" length="21.24" shape="106.03,468.43 105.46,474.56 105.17,479.11 105.12,483.67 105.27,489.83"/>
    </edge>
    <edge id=":J1_0_13" function="internal">
        <lane id=":J1_0_13_0" index="0" speed="9.79" length="5.32" shape="106.03,468.43 104.84,473.61"/>
    </edge>
    <edge id=":J1_0_14" function="internal">
        <lane id=":J1_0_14_0" index="0" speed="3.65" length="1.44" shape="106.03,468.43 105.12,469.54"/>
    </edge>
    <edge id=":J1_0_24" function="internal">
        <lane id=":J1_0_24_0" index="0" speed="9.79" length="14.82" shape="104.84,473.61 104.77,473.94 102.19,477.88 98.32,480.24 93.14,481.03"/>
    </edge>
    <edge id=":J1_0_25" function="internal">
        <lane id=":J1_0_25_0" index="0" speed="3.65" length="3.23" shape="105.12,469.54 104.29,469.86 103.53,469.39 102.85,468.11"/>
    </edge>
    <edge id=":J1_0_15" function="internal">
        <lane id=":J1_0_15_0" index="0" speed="7.23" length="10.53" shape="93.14,474.63 95.75,474.20 97.70,472.92 99.01,470.79 99.66,467.80"/>
    </edge>
    <edge id=":J1_0_16" function="internal">
        <lane id=":J1_0_16_0" index="0" speed="13.90" length="21.35" shape="93.14,474.63 114.46,474.39"/>
        <lane id=":J1_0_16_1" index="1" speed="13.90" length="21.35" shape="93.14,477.83 114.53,477.58"/>
    </edge>
    <edge id=":J1_0_18" function="internal">
        <lane id=":J1_0_18_0" index="0" speed="9.36" length="4.59" shape="93.14,477.83 97.68,478.49"/>
    </edge>
    <edge id=":J1_0_19" function="internal">
        <lane id=":J1_0_19_0" index="0" speed="3.65" length="1.44" shape="93.14,477.83 94.34,478.63"/>
    </edge>
    <edge id=":J1_0_26" function="internal">
        <lane id=":J1_0_26_0" index="0" speed="9.36" length="14.74" shape="97.68,478.49 98.31,478.58 102.05,480.83 104.37,484.58 105.27,489.83"/>
    </edge>
    <edge id=":J1_0_27" function="internal">
        <lane id=":J1_0_27_0" index="0" speed="3.65" length="3.23" shape="94.34,478.63 94.74,479.43 94.34,480.23 93.14,481.03"/>
    </edge>
    <edge id=":J1_1_0" function="internal">
        <lane id=":J1_1_0_0" index="0" speed="7.58" length="12.43" shape="436.30,482.80 435.61,480.25 433.79,478.46 430.83,477.42 426.74,477.15"/>
    </edge>
    <edge id=":J1_1_1" function="internal">
        <lane id=":J1_1_1_0" index="0" speed="13.75" length="31.32" shape="436.30,482.80 434.94,473.22 432.10,466.18 428.18,460.50 423.60,455.02"/>
    </edge>
    <edge id=":J1_1_2" function="internal">
        <lane id=":J1_1_2_0" index="0" speed="15.50" length="35.59" shape="436.30,482.80 436.48,447.00"/>
        <lane id=":J1_1_2_1" index="1" speed="15.50" length="35.59" shape="439.50,482.67 439.68,447.08"/>
        <lane id=":J1_1_2_2" index="2" speed="15.50" length="35.59" shape="442.69,482.54 442.88,447.16"/>
    </edge>
    <edge id=":J1_1_5" function="internal">
        <lane id=":J1_1_5_0" index="0" speed="13.75" length="4.91" shape="442.69,482.54 443.42,477.68"/>
    </edge>
    <edge id=":J1_1_6" function="internal">
        <lane id=":J1_1_6_0" index="0" speed="10.81" length="3.68" shape="442.69,482.54 443.43,478.93"/>
    </edge>
    <edge id=":J1_1_7" function="internal">
        <lane id=":J1_1_7_0" index="0" speed="3.65" length="1.44" shape="442.69,482.54 443.44,481.30"/>
    </edge>
    <edge id=":J1_1_44" function="internal">
        <lane id=":J1_1_44_0" index="0" speed="13.75" length="30.96" shape="443.42,477.68 443.61,476.44 446.84,469.33 452.37,461.19 460.21,452.03"/>
    </edge>
    <edge id=":J1_1_45" function="internal">
        <lane id=":J1_1_45_0" index="0" speed="10.81" length="23.30" shape="443.43,478.93 443.78,477.19 447.55,473.29 454.00,470.81 463.13,469.77"/>
    </edge>
    <edge id=":J1_1_46" function="internal">
        <lane id=":J1_1_46_0" index="0" speed="3.65" length="3.23" shape="443.44,481.30 444.22,480.87 445.04,481.24 445.89,482.40"/>
    </edge>
    <edge id=":J1_1_8" function="internal">
        <lane id=":J1_1_8_0" index="0" speed="7.89" length="13.90" shape="463.32,476.17 458.41,476.67 454.93,477.83 452.89,479.65 452.28,482.13"/>
    </edge>
    <edge id=":J1_1_9" function="internal">
        <lane id=":J1_1_9_0" index="0" speed="13.90" length="36.58" shape="463.32,476.17 426.74,477.15"/>
        <lane id=":J1_1_9_1" index="1" speed="13.90" length="36.58" shape="463.23,472.97 426.67,473.95"/>
    </edge>
    <edge id=":J1_1_11" function="internal">
        <lane id=":J1_1_11_0" index="0" speed="12.95" length="5.48" shape="463.23,472.97 457.77,472.41"/>
    </edge>
    <edge id=":J1_1_12" function="internal">
        <lane id=":J1_1_12_0" index="0" speed="12.52" length="4.10" shape="463.23,472.97 459.17,472.37"/>
    </edge>
    <edge id=":J1_1_13" function="internal">
        <lane id=":J1_1_13_0" index="0" speed="8.82" length="2.44" shape="463.23,472.97 460.89,472.29"/>
    </edge>
    <edge id=":J1_1_14" function="internal">
        <lane id=":J1_1_14_0" index="0" speed="3.65" length="1.44" shape="463.23,472.97 462.00,472.21"/>
    </edge>
    <edge id=":J1_1_47" function="internal">
        <lane id=":J1_1_47_0" index="0" speed="12.95" length="38.20" shape="457.77,472.41 453.36,471.96 443.88,468.28 434.78,461.96 426.07,452.98"/>
    </edge>
    <edge id=":J1_1_48" function="internal">
        <lane id=":J1_1_48_0" index="0" speed="12.52" length="33.71" shape="459.17,472.37 454.07,471.60 447.63,466.84 443.90,458.70 442.88,447.16"/>
    </edge>
    <edge id=":J1_1_49" function="internal">