<edges>
    <edge id="N_to_J1" from="N" to="J1" numLanes="3" speed="18.0"/>
    <edge id="J1_to_N" from="J1" to="N" numLanes="3" speed="18.0"/>
    <edge id="J1_to_J3" from="J1" to="J3" numLanes="3" speed="18.0"/>
    <edge id="J3_to_J1" from="J3" to="J1" numLanes="3" speed="18.0"/>
    <edge id="J3_to_J6" from="J3" to="J6" numLanes="3" speed="18.0"/>
    <edge id="J6_to_J3" from="J6" to="J3" numLanes="3" speed="18.0"/>
    <edge id="J6_to_S" from="J6" to="S" numLanes="3" speed="18.0"/>
    <edge id="S_to_J6" from="S" to="J6" numLanes="3" speed="18.0"/>
    <edge id="WM_to_J2" from="WM" to="J2" numLanes="3" speed="17.0"/>
    <edge id="J2_to_WM" from="J2" to="WM" numLanes="3" speed="17.0"/>
    <edge id="J2_to_J3" from="J2" to="J3" numLanes="3" speed="17.0"/>
    <edge id="J3_to_J2" from="J3" to="J2" numLanes="3" speed="17.0"/>
    <edge id="J3_to_J4" from="J3" to="J4" numLanes="3" speed="17.0"/>
    <edge id="J4_to_J3" from="J4" to="J3" numLanes="3" speed="17.0"/>
    <edge id="J4_to_EM" from="J4" to="EM" numLanes="3" speed="17.0"/>
    <edge id="EM_to_J4" from="EM" to="J4" numLanes="3" speed="17.0"/>
    <edge id="WU_to_J0" from="WU" to="J0" numLanes="2" speed="15.0"/>
    <edge id="J0_to_WU" from="J0" to="WU" numLanes="2" speed="15.0"/>
    <edge id="J0_to_J1" from="J0" to="J1" numLanes="2" speed="15.0"/>
    <edge id="J1_to_J0" from="J1" to="J0" numLanes="2" speed="15.0"/>
    <edge id="J1_to_EU" from="J1" to="EU" numLanes="2" speed="15.0"/>
    <edge id="EU_to_J1" from="EU" to="J1" numLanes="2" speed="15.0"/>
    <edge id="WL_to_J5" from="WL" to="J5" numLanes="2" speed="15.0"/>
    <edge id="J5_to_WL" from="J5" to="WL" numLanes="2" speed="15.0"/>
    <edge id="J5_to_J6" from="J5" to="J6" numLanes="2" speed="15.0"/>
    <edge id="J6_to_J5" from="J6" to="J5" numLanes="2" speed="15.0"/>
    <edge id="J6_to_J7" from="J6" to="J7" numLanes="2" speed="15.0"/>
    <edge id="J7_to_J6" from="J7" to="J6" numLanes="2" speed="15.0"/>
    <edge id="J7_to_EL" from="J7" to="EL" numLanes="2" speed="15.0"/>
    <edge id="EL_to_J7" from="EL" to="J7" numLanes="2" speed="15.0"/>
    <edge id="J0_to_J2" from="J0" to="J2" numLanes="2" speed="14.0"/>
    <edge id="J2_to_J0" from="J2" to="J0" numLanes="2" speed="14.0"/>
    <edge id="J2_to_J5" from="J2" to="J5" numLanes="2" speed="14.0"/>
    <edge id="J5_to_J2" from="J5" to="J2" numLanes="2" speed="14.0"/>
    <edge id="J4_to_J7" from="J4" to="J7" numLanes="2" speed="14.0"/>
    <edge id="J7_to_J4" from="J7" to="J4" numLanes="2" speed="14.0"/>
    <edge id="J2_to_J6" from="J2" to="J6" numLanes="1" speed="12.0"/>
    <edge id="J6_to_J2" from="J6" to="J2" numLanes="1" speed="12.0"/>
</edges>