<edges>
    <edge id="E0_P2_P0" from="P2" to="P0" numLanes="1" speed="13.9" shape="70.0,559.74 152.0,564.2 234.0,569.24 316.0,570.69 400.46,570.0"/>
    <edge id="E0_P0_P2" from="P0" to="P2" numLanes="1" speed="13.9" shape="400.46,570.0 316.0,570.69 234.0,569.24 152.0,564.2 70.0,559.74"/>
    <edge id="E1_P0_P3" from="P0" to="P3" numLanes="1" speed="13.9" shape="400.46,570.0 562.0,568.28 644.0,558.02 726.0,555.28 808.0,549.55 890.0,540.78"/>
    <edge id="E1_P3_P0" from="P3" to="P0" numLanes="1" speed="13.9" shape="890.0,540.78 808.0,549.55 726.0,555.28 644.0,558.02 562.0,568.28 400.46,570.0"/>
    <edge id="E2_P4_P1" from="P4" to="P1" numLanes="1" speed="13.9" shape="70.0,458.88 152.0,447.97 234.0,451.93 316.0,446.4 408.04,450.56"/>
    <edge id="E2_P1_P4" from="P1" to="P4" numLanes="1" speed="13.9" shape="408.04,450.56 316.0,446.4 234.0,451.93 152.0,447.97 70.0,458.88"/>
    <edge id="E3_P1_P3" from="P1" to="P3" numLanes="1" speed="13.9" shape="408.04,450.56 562.0,481.19 644.0,493.97 726.0,485.77 808.0,493.06 890.0,495.69"/>
    <edge id="E3_P3_P1" from="P3" to="P1" numLanes="1" speed="13.9" shape="890.0,495.69 808.0,493.06 726.0,485.77 644.0,493.97 562.0,481.19 408.04,450.56"/>
    <edge id="E4_P0_P1" from="P0" to="P1" numLanes="1" speed="13.9" shape="406.6,611.01 408.04,450.56"/>
    <edge id="E4_P1_P0" from="P1" to="P0" numLanes="1" speed="13.9" shape="408.04,450.56 406.6,611.01"/>
    <edge id="E5_P1_P5" from="P1" to="P5" numLanes="1" speed="13.9" shape="408.04,450.56 379.94,340.5 393.38,205.23 375.69,137.64 355.03,70.0"/>
    <edge id="E5_P5_P1" from="P5" to="P1" numLanes="1" speed="13.9" shape="355.03,70.0 375.69,137.64 393.38,205.23 379.94,340.5 408.04,450.56"/>
</edges>