<routes>
    <vType id="passenger" accel="2.6" decel="4.5" sigma="0.5" length="5" maxSpeed="13.9"/>
    <vType id="emergency" accel="3.0" decel="5.0" sigma="0.2" length="5" maxSpeed="16.0" color="1,0,0"/>
    <route id="r0" edges="E0_P2_P0 E1_P0_P3"/>
    <route id="r1" edges="E0_P2_P0 E4_P0_P1 E2_P1_P4"/>
    <route id="r2" edges="E0_P2_P0 E4_P0_P1 E5_P1_P5"/>
    <route id="r3" edges="E1_P3_P0 E0_P0_P2"/>
    <route id="r4" edges="E3_P3_P1 E2_P1_P4"/>
    <route id="r5" edges="E3_P3_P1 E5_P1_P5"/>
    <route id="r6" edges="E2_P4_P1 E4_P1_P0 E0_P0_P2"/>
    <route id="r7" edges="E2_P4_P1 E3_P1_P3"/>
    <route id="r8" edges="E2_P4_P1 E5_P1_P5"/>
    <route id="r9" edges="E5_P5_P1 E4_P1_P0 E0_P0_P2"/>
    <route id="r10" edges="E5_P5_P1 E3_P1_P3"/>
    <route id="r11" edges="E5_P5_P1 E2_P1_P4"/>
    <vehicle id="veh0" type="passenger" route="r7" depart="0.0"/>
    <vehicle id="veh1" type="passenger" route="r7" depart="1.67"/>
    <vehicle id="veh2" type="passenger" route="r9" depart="3.33"/>
    <vehicle id="veh3" type="passenger" route="r8" depart="5.0"/>
    <vehicle id="veh4" type="passenger" route="r9" depart="6.67"/>
    <vehicle id="veh5" type="passenger" route="r1" depart="8.33"/>
    <vehicle id="veh6" type="passenger" route="r2" depart="10.0"/>
    <vehicle id="veh7" type="passenger" route="r11" depart="11.67"/>
    <vehicle id="veh8" type="passenger" route="r9" depart="13.33"/>
    <vehicle id="veh9" type="passenger" route="r7" depart="15.0"/>
    <vehicle id="veh10" type="passenger" route="r9" depart="16.67"/>
    <vehicle id="veh11" type="emergency" route="r9" depart="18.33"/>
    <vehicle id="veh12" type="passenger" route="r8" depart="20.0"/>
    <vehicle id="veh13" type="passenger" route="r0" depart="21.67"/>
    <vehicle id="veh14" type="passenger" route="r3" depart="23.33"/>
    <vehicle id="veh15" type="passenger" route="r7" depart="25.0"/>
    <vehicle id="veh16" type="passenger" route="r9" depart="26.67"/>
    <vehicle id="veh17" type="passenger" route="r8" depart="28.33"/>
    <vehicle id="veh18" type="passenger" route="r4" depart="30.0"/>
    <vehicle id="veh19" type="passenger" route="r10" depart="31.67"/>
    <vehicle id="veh20" type="passenger" route="r10" depart="33.33"/>
    <vehicle id="veh21" type="passenger" route="r8" depart="35.0"/>
    <vehicle id="veh22" type="passenger" route="r1" depart="36.67"/>
    <vehicle id="veh23" type="passenger" route="r5" depart="38.33"/>
    <vehicle id="veh24" type="passenger" route="r8" depart="40.0"/>
    <vehicle id="veh25" type="passenger" route="r1" depart="41.67"/>
    <vehicle id="veh26" type="passenger" route="r1" depart="43.33"/>
    <vehicle id="veh27" type="passenger" route="r4" depart="45.0"/>
    <vehicle id="veh28" type="passenger" route="r0" depart="46.67"/>
    <vehicle id="veh29" type="passenger" route="r0" depart="48.33"/>
    <vehicle id="veh30" type="passenger" route="r0" depart="50.0"/>
    <vehicle id="veh31" type="passenger" route="r11" depart="51.67"/>
    <vehicle id="veh32" type="passenger" route="r1" depart="53.33"/>
    <vehicle id="veh33" type="passenger" route="r3" depart="55.0"/>
    <vehicle id="veh34" type="passenger" route="r4" depart="56.67"/>
    <vehicle id="veh35" type="passenger" route="r4" depart="58.33"/>
    <vehicle id="veh36" type="passenger" route="r6" depart="60.0"/>
    <vehicle id="veh37" type="passenger" route="r1" depart="61.67"/>
    <vehicle id="veh38" type="passenger" route="r11" depart="63.33"/>
    <vehicle id="veh39" type="passenger" route="r0" depart="65.0"/>
    <vehicle id="veh40" type="passenger" route="r7" depart="66.67"/>
    <vehicle id="veh41" type="passenger" route="r8" depart="68.33"/>
    <vehicle id="veh42" type="passenger" route="r8" depart="70.0"/>
    <vehicle id="veh43" type="passenger" route="r11" depart="71.67"/>
    <vehicle id="veh44" type="passenger" route="r6" depart="73.33"/>
    <vehicle id="veh45" type="passenger" route="r1" depart="75.0"/>
    <vehicle id="veh46" type="emergency" route="r3" depart="76.67"/>
    <vehicle id="veh47" type="passenger" route="r9" depart="78.33"/>
    <vehicle id="veh48" type="passenger" route="r0" depart="80.0"/>
    <vehicle id="veh49" type="passenger" route="r6" depart="81.67"/>
    <vehicle id="veh50" type="passenger" route="r9" depart="83.33"/>
    <vehicle id="veh51" type="passenger" route="r1" depart="85.0"/>
    <vehicle id="veh52" type="passenger" route="r2" depart="86.67"/>
    <vehicle id="veh53" type="emergency" route="r4" depart="88.33"/>
    <vehicle id="veh54" type="passenger" route="r9" depart="90.0"/>
    <vehicle id="veh55" type="passenger" route="r4" depart="91.67"/>
    <vehicle id="veh56" type="passenger" route="r1" depart="93.33"/>
    <vehicle id="veh57" type="passenger" route="r9" depart="95.0"/>
    <vehicle id="veh58" type="passenger" route="r0" depart="96.67"/>
    <vehicle id="veh59" type="passenger" route="r5" depart="98.33"/>
    <vehicle id="veh60" type="passenger" route="r2" depart="100.0"/>
    <vehicle id="veh61" type="passenger" route="r7" depart="101.67"/>
    <vehicle id="veh62" type="passenger" route="r2" depart="103.33"/>
    <vehicle id="veh63" type="passenger" route="r2" depart="105.0"/>
    <vehicle id="veh64" type="passenger" route="r4" depart="106.67"/>
    <vehicle id="veh65" type="passenger" route="r9" depart="108.33"/>
    <vehicle id="veh66" type="passenger" route="r3" depart="110.0"/>
    <vehicle id="veh67" type="passenger" route="r10" depart="111.67"/>
    <vehicle id="veh68" type="passenger" route="r3" depart="113.33"/>
    <vehicle id="veh69" type="passenger" route="r6" depart="115.0"/>
    <vehicle id="veh70" type="passenger" route="r9" depart="116.67"/>
    <vehicle id="veh71" type="passenger" route="r0" depart="118.33"/>
    <vehicle id="veh72" type="passenger" route="r0" depart="120.0"/>
    <vehicle id="veh73" type="passenger" route="r4" depart="121.67"/>
    <vehicle id="veh74" type="passenger" route="r11" depart="123.33"/>
    <vehicle id="veh75" type="passenger" route="r6" depart="125.0"/>
    <vehicle id="veh76" type="passenger" route="r9" depart="126.67"/>
    <vehicle id="veh77" type="passenger" route="r8" depart="128.33"/>
    <vehicle id="veh78" type="passenger" route="r11" depart="130.0"/>
    <vehicle id="veh79" type="passenger" route="r2" depart="131.67"/>
    <vehicle id="veh80" type="passenger" route="r8" depart="133.33"/>
    <vehicle id="veh81" type="passenger" route="r9" depart="135.0"/>
    <vehicle id="veh82" type="passenger" route="r4" depart="136.67"/>
    <vehicle id="veh83" type="passenger" route="r3" depart="138.33"/>
    <vehicle id="veh84" type="passenger" route="r1" depart="140.0"/>
    <vehicle id="veh85" type="passenger" route="r7" depart="141.67"/>
    <vehicle id="veh86" type="passenger" route="r0" depart="143.33"/>
    <vehicle id="veh87" type="passenger" route="r5" depart="145.0"/>
    <vehicle id="veh88" type="passenger" route="r2" depart="146.67"/>
    <vehicle id="veh89" type="passenger" route="r2" depart="148.33"/>
    <vehicle id="veh90" type="passenger" route="r5" depart="150.0"/>
    <vehicle id="veh91" type="passenger" route="r11" depart="151.67"/>
    <vehicle id="veh92" type="passenger" route="r2" depart="153.33"/>
    <vehicle id="veh93" type="passenger" route="r0" depart="155.0"/>
    <vehicle id="veh94" type="passenger" route="r5" depart="156.67"/>
    <vehicle id="veh95" type="passenger" route="r0" depart="158.33"/>
    <vehicle id="veh96" type="passenger" route="r10" depart="160.0"/>
    <vehicle id="veh97" type="passenger" route="r1" depart="161.67"/>
    <vehicle id="veh98" type="passenger" route="r5" depart="163.33"/>
    <vehicle id="veh99" type="passenger" route="r1" depart="165.0"/>
    <vehicle id="veh100" type="passenger" route="r8" depart="166.67"/>
    <vehicle id="veh101" type="passenger" route="r0" depart="168.33"/>
    <vehicle id="veh102" type="passenger" route="r11" depart="170.0"/>
    <vehicle id="veh103" type="passenger" route="r2" depart="171.67"/>
    <vehicle id="veh104" type="passenger" route="r5" depart="173.33"/>
    <vehicle id="veh105" type="passenger" route="r10" depart="175.0"/>
    <vehicle id="veh106" type="passenger" route="r1" depart="176.67"/>
    <vehicle id="veh107" type="passenger" route="r6" depart="178.33"/>
    <vehicle id="veh108" type="passenger" route="r0" depart="180.0"/>
    <vehicle id="veh109" type="emergency" route="r9" depart="181.67"/>
    <vehicle id="veh110" type="passenger" route="r10" depart="183.33"/>
    <vehicle id="veh111" type="emergency" route="r9" depart="185.0"/>
    <vehicle id="veh112" type="passenger" route="r1" depart="186.67"/>
    <vehicle id="veh113" type="passenger" route="r10" depart="188.33"/>
    <vehicle id="veh114" type="passenger" route="r4" depart="190.0"/>
    <vehicle id="veh115" type="passenger" route="r11" depart="191.67"/>
    <vehicle id="veh116" type="passenger" route="r11" depart="193.33"/>
    <vehicle id="veh117" type="passenger" route="r7" depart="195.0"/>
    <vehicle id="veh118" type="passenger" route="r8" depart="196.67"/>
    <vehicle id="veh119" type="passenger" route="r8" depart="198.33"/>
    <vehicle id="veh120" type="passenger" route="r9" depart="200.0"/>
    <vehicle id="veh121" type="passenger" route="r0" depart="201.67"/>
    <vehicle id="veh122" type="passenger" route="r11" depart="203.33"/>
    <vehicle id="veh123" type="passenger" route="r9" depart="205.0"/>
    <vehicle id="veh124" type="passenger" route="r7" depart="206.67"/>
    <vehicle id="veh125" type="passenger" route="r0" depart="208.33"/>
    <vehicle id="veh126" type="passenger" route="r2" depart="210.0"/>
    <vehicle id="veh127" type="passenger" route="r3" depart="211.67"/>
    <vehicle id="veh128" type="passenger" route="r5" depart="213.33"/>
    <vehicle id="veh129" type="passenger" route="r7" depart="215.0"/>
    <vehicle id="veh130" type="passenger" route="r3" depart="216.67"/>
    <vehicle id="veh131" type="passenger" route="r10" depart="218.33"/>
    <vehicle id="veh132" type="passenger" route="r10" depart="220.0"/>
    <vehicle id="veh133" type="passenger" route="r3" depart="221.67"/>
    <vehicle id="veh134" type="passenger" route="r6" depart="223.33"/>
    <vehicle id="veh135" type="passenger" route="r5" depart="225.0"/>
    <vehicle id="veh136" type="passenger" route="r2" depart="226.67"/>
    <vehicle id="veh137" type="passenger" route="r0" depart="228.33"/>
    <vehicle id="veh138" type="passenger" route="r4" depart="230.0"/>
    <vehicle id="veh139" type="passenger" route="r1" depart="231.67"/>
    <vehicle id="veh140" type="passenger" route="r4" depart="233.33"/>
    <vehicle id="veh141" type="passenger" route="r6" depart="235.0"/>
    <vehicle id="veh142" type="passenger" route="r8" depart="236.67"/>
    <vehicle id="veh143" type="passenger" route="r5" depart="238.33"/>
    <vehicle id="veh144" type="passenger" route="r9" depart="240.0"/>
    <vehicle id="veh145" type="passenger" route="r1" depart="241.67"/>
    <vehicle id="veh146" type="passenger" route="r4" depart="243.33"/>
    <vehicle id="veh147" type="passenger" route="r0" depart="245.0"/>
    <vehicle id="veh148" type="passenger" route="r4" depart="246.67"/>
    <vehicle id="veh149" type="passenger" route="r4" depart="248.33"/>
    <vehicle id="veh150" type="emergency" route="r9" depart="250.0"/>
    <vehicle id="veh151" type="passenger" route="r2" depart="251.67"/>
    <vehicle id="veh152" type="passenger" route="r3" depart="253.33"/>
    <vehicle id="veh153" type="passenger" route="r4" depart="255.0"/>
    <vehicle id="veh154" type="passenger" route="r2" depart="256.67"/>
    <vehicle id="veh155" type="passenger" route="r10" depart="258.33"/>
    <vehicle id="veh156" type="passenger" route="r1" depart="260.0"/>
    <vehicle id="veh157" type="passenger" route="r10" depart="261.67"/>
    <vehicle id="veh158" type="passenger" route="r5" depart="263.33"/>
    <vehicle id="veh159" type="passenger" route="r10" depart="265.0"/>
    <vehicle id="veh160" type="passenger" route="r7" depart="266.67"/>
    <vehicle id="veh161" type="emergency" route="r11" depart="268.33"/>
    <vehicle id="veh162" type="passenger" route="r7" depart="270.0"/>
    <vehicle id="veh163" type="passenger" route="r0" depart="271.67"/>
    <vehicle id="veh164" type="passenger" route="r4" depart="273.33"/>
    <vehicle id="veh165" type="passenger" route="r8" depart="275.0"/>
    <vehicle id="veh166" type="passenger" route="r8" depart="276.67"/>
    <vehicle id="veh167" type="passenger" route="r2" depart="278.33"/>
    <vehicle id="veh168" type="passenger" route="r11" depart="280.0"/>
    <vehicle id="veh169" type="passenger" route="r1" depart="281.67"/>
    <vehicle id="veh170" type="passenger" route="r11" depart="283.33"/>
    <vehicle id="veh171" type="passenger" route="r7" depart="285.0"/>
    <vehicle id="veh172" type="passenger" route="r10" depart="286.67"/>
    <vehicle id="veh173" type="passenger" route="r0" depart="288.33"/>
    <vehicle id="veh174" type="passenger" route="r9" depart="290.0"/>
    <vehicle id="veh175" type="passenger" route="r8" depart="291.67"/>
    <vehicle id="veh176" type="passenger" route="r5" depart="293.33"/>
    <vehicle id="veh177" type="passenger" route="r10" depart="295.0"/>
    <vehicle id="veh178" type="passenger" route="r1" depart="296.67"/>
    <vehicle id="veh179" type="passenger" route="r10" depart="298.33"/>
    <vehicle id="veh180" type="passenger" route="r1" depart="300.0"/>
    <vehicle id="veh181" type="passenger" route="r6" depart="301.67"/>
    <vehicle id="veh182" type="passenger" route="r4" depart="303.33"/>
    <vehicle id="veh183" type="passenger" route="r5" depart="305.0"/>
    <vehicle id="veh184" type="passenger" route="r11" depart="306.67"/>
    <vehicle id="veh185" type="passenger" route="r5" depart="308.33"/>
    <vehicle id="veh186" type="passenger" route="r0" depart="310.0"/>
    <vehicle id="veh187" type="passenger" route="r8" depart="311.67"/>
    <vehicle id="veh188" type="passenger" route="r4" depart="313.33"/>
    <vehicle id="veh189" type="passenger" route="r0" depart="315.0"/>
    <vehicle id="veh190" type="passenger" route="r1" depart="316.67"/>
    <vehicle id="veh191" type="passenger" route="r0" depart="318.33"/>
    <vehicle id="veh192" type="passenger" route="r5" depart="320.0"/>
    <vehicle id="veh193" type="passenger" route="r2" depart="321.67"/>
    <vehicle id="veh194" type="passenger" route="r8" depart="323.33"/>
    <vehicle id="veh195" type="passenger" route="r8" depart="325.0"/>
    <vehicle id="veh196" type="passenger" route="r11" depart="326.67"/>
    <vehicle id="veh197" type="passenger" route="r7" depart="328.33"/>
    <vehicle id="veh198" type="passenger" route="r11" depart="330.0"/>
    <vehicle id="veh199" type="passenger" route="r3" depart="331.67"/>
    <vehicle id="veh200" type="passenger" route="r8" depart="333.33"/>
    <vehicle id="veh201" type="passenger" route="r11" depart="335.0"/>
    <vehicle id="veh202" type="passenger" route="r2" depart="336.67"/>
    <vehicle id="veh203" type="passenger" route="r8" depart="338.33"/>
    <vehicle id="veh204" type="passenger" route="r10" depart="340.0"/>
    <vehicle id="veh205" type="passenger" route="r9" depart="341.67"/>
    <vehicle id="veh206" type="passenger" route="r2" depart="343.33"/>
    <vehicle id="veh207" type="passenger" route="r8" depart="345.0"/>
    <vehicle id="veh208" type="passenger" route="r7" depart="346.67"/>
    <vehicle id="veh209" type="passenger" route="r8" depart="348.33"/>
    <vehicle id="veh210" type="passenger" route="r0" depart="350.0"/>
    <vehicle id="veh211" type="passenger" route="r0" depart="351.67"/>
    <vehicle id="veh212" type="passenger" route="r0" depart="353.33"/>
    <vehicle id="veh213" type="passenger" route="r6" depart="355.0"/>
    <vehicle id="veh214" type="passenger" route="r9" depart="356.67"/>
    <vehicle id="veh215" type="passenger" route="r1" depart="358.33"/>
    <vehicle id="veh216" type="passenger" route="r1" depart="360.0"/>
    <vehicle id="veh217" type="passenger" route="r7" depart="361.67"/>
    <vehicle id="veh218" type="passenger" route="r6" depart="363.33"/>
    <vehicle id="veh219" type="passenger" route="r7" depart="365.0"/>
    <vehicle id="veh220" type="passenger" route="r5" depart="366.67"/>
    <vehicle id="veh221" type="passenger" route="r7" depart="368.33"/>
    <vehicle id="veh222" type="passenger" route="r1" depart="370.0"/>
    <vehicle id="veh223" type="passenger" route="r9" depart="371.67"/>
    <vehicle id="veh224" type="passenger" route="r4" depart="373.33"/>
    <vehicle id="veh225" type="passenger" route="r0" depart="375.0"/>
    <vehicle id="veh226" type="passenger" route="r2" depart="376.67"/>
    <vehicle id="veh227" type="passenger" route="r10" depart="378.33"/>
    <vehicle id="veh228" type="passenger" route="r11" depart="380.0"/>
    <vehicle id="veh229" type="passenger" route="r9" depart="381.67"/>
    <vehicle id="veh230" type="passenger" route="r7" depart="383.33"/>
    <vehicle id="veh231" type="passenger" route="r1" depart="385.0"/>
    <vehicle id="veh232" type="passenger" route="r9" depart="386.67"/>
    <vehicle id="veh233" type="passenger" route="r3" depart="388.33"/>
    <vehicle id="veh234" type="passenger" route="r6" depart="390.0"/>
    <vehicle id="veh235" type="passenger" route="r10" depart="391.67"/>
    <vehicle id="veh236" type="passenger" route="r8" depart="393.33"/>
    <vehicle id="veh237" type="passenger" route="r8" depart="395.0"/>
    <vehicle id="veh238" type="passenger" route="r10" depart="396.67"/>
    <vehicle id="veh239" type="passenger" route="r3" depart="398.33"/>
    <vehicle id="veh240" type="passenger" route="r8" depart="400.0"/>
    <vehicle id="veh241" type="passenger" route="r2" depart="401.67"/>
    <vehicle id="veh242" type="passenger" route="r11" depart="403.33"/>
    <vehicle id="veh243" type="passenger" route="r5" depart="405.0"/>
    <vehicle id="veh244" type="passenger" route="r5" depart="406.67"/>
    <vehicle id="veh245" type="passenger" route="r3" depart="408.33"/>
    <vehicle id="veh246" type="passenger" route="r3" depart="410.0"/>
    <vehicle id="veh247" type="passenger" route="r2" depart="411.67"/>
    <vehicle id="veh248" type="passenger" route="r2" depart="413.33"/>
    <vehicle id="veh249" type="passenger" route="r4" depart="415.0"/>
    <vehicle id="veh250" type="passenger" route="r6" depart="416.67"/>
    <vehicle id="veh251" type="passenger" route="r6" depart="418.33"/>
    <vehicle id="veh252" type="passenger" route="r11" depart="420.0"/>
    <vehicle id="veh253" type="passenger" route="r6" depart="421.67"/>
    <vehicle id="veh254" type="passenger" route="r0" depart="423.33"/>
    <vehicle id="veh255" type="passenger" route="r9" depart="425.0"/>
    <vehicle id="veh256" type="passenger" route="r5" depart="426.67"/>
    <vehicle id="veh257" type="passenger" route="r8" depart="428.33"/>
    <vehicle id="veh258" type="passenger" route="r5" depart="430.0"/>
    <vehicle id="veh259" type="passenger" route="r10" depart="431.67"/>
    <vehicle id="veh260" type="passenger" route="r1" depart="433.33"/>
    <vehicle id="veh261" type="passenger" route="r0" depart="435.0"/>
    <vehicle id="veh262" type="passenger" route="r8" depart="436.67"/>
    <vehicle id="veh263" type="passenger" route="r9" depart="438.33"/>
    <vehicle id="veh264" type="passenger" route="r3" depart="440.0"/>
    <vehicle id="veh265" type="passenger" route="r3" depart="441.67"/>
    <vehicle id="veh266" type="passenger" route="r2" depart="443.33"/>
    <vehicle id="veh267" type="passenger" route="r10" depart="445.0"/>
    <vehicle id="veh268" type="passenger" route="r0" depart="446.67"/>
    <vehicle id="veh269" type="passenger" route="r10" depart="448.33"/>
    <vehicle id="veh270" type="passenger" route="r1" depart="450.0"/>
    <vehicle id="veh271" type="passenger" route="r7" depart="451.67"/>
    <vehicle id="veh272" type="passenger" route="r5" depart="453.33"/>
    <vehicle id="veh273" type="passenger" route="r9" depart="455.0"/>
    <vehicle id="veh274" type="passenger" route="r10" depart="456.67"/>
    <vehicle id="veh275" type="passenger" route="r3" depart="458.33"/>
    <vehicle id="veh276" type="passenger" route="r7" depart="460.0"/>
    <vehicle id="veh277" type="passenger" route="r5" depart="461.67"/>
    <vehicle id="veh278" type="passenger" route="r3" depart="463.33"/>
    <vehicle id="veh279" type="passenger" route="r1" depart="465.0"/>
    <vehicle id="veh280" type="passenger" route="r0" depart="466.67"/>
    <vehicle id="veh281" type="passenger" route="r1" depart="468.33"/>
    <vehicle id="veh282" type="passenger" route="r11" depart="470.0"/>
    <vehicle id="veh283" type="passenger" route="r10" depart="471.67"/>
    <vehicle id="veh284" type="passenger" route="r9" depart="473.33"/>
    <vehicle id="veh285" type="passenger" route="r8" depart="475.0"/>
    <vehicle id="veh286" type="passenger" route="r5" depart="476.67"/>
    <vehicle id="veh287" type="passenger" route="r4" depart="478.33"/>
    <vehicle id="veh288" type="passenger" route="r1" depart="480.0"/>
    <vehicle id="veh289" type="passenger" route="r2" depart="481.67"/>
    <vehicle id="veh290" type="passenger" route="r6" depart="483.33"/>
    <vehicle id="veh291" type="passenger" route="r5" depart="485.0"/>
    <vehicle id="veh292" type="passenger" route="r11" depart="486.67"/>
    <vehicle id="veh293" type="passenger" route="r6" depart="488.33"/>
    <vehicle id="veh294" type="passenger" route="r6" depart="490.0"/>
    <vehicle id="veh295" type="passenger" route="r2" depart="491.67"/>
    <vehicle id="veh296" type="passenger" route="r5" depart="493.33"/>
    <vehicle id="veh297" type="emergency" route="r1" depart="495.0"/>
    <vehicle id="veh298" type="passenger" route="r5" depart="496.67"/>
    <vehicle id="veh299" type="passenger" route="r9" depart="498.33"/>
    <vehicle id="veh300" type="passenger" route="r4" depart="500.0"/>
    <vehicle id="veh301" type="passenger" route="r10" depart="501.67"/>
    <vehicle id="veh302" type="passenger" route="r3" depart="503.33"/>
    <vehicle id="veh303" type="passenger" route="r9" depart="505.0"/>
    <vehicle id="veh304" type="passenger" route="r1" depart="506.67"/>
    <vehicle id="veh305" type="passenger" route="r7" depart="508.33"/>
    <vehicle id="veh306" type="passenger" route="r11" depart="510.0"/>
    <vehicle id="veh307" type="passenger" route="r6" depart="511.67"/>
    <vehicle id="veh308" type="passenger" route="r0" depart="513.33"/>
    <vehicle id="veh309" type="passenger" route="r1" depart="515.0"/>
    <vehicle id="veh310" type="passenger" route="r4" depart="516.67"/>
    <vehicle id="veh311" type="passenger" route="r8" depart="518.33"/>
    <vehicle id="veh312" type="passenger" route="r3" depart="520.0"/>
    <vehicle id="veh313" type="passenger" route="r0" depart="521.67"/>
    <vehicle id="veh314" type="passenger" route="r4" depart="523.33"/>
    <vehicle id="veh315" type="passenger" route="r5" depart="525.0"/>
    <vehicle id="veh316" type="passenger" route="r8" depart="526.67"/>
    <vehicle id="veh317" type="passenger" route="r8" depart="528.33"/>
    <vehicle id="veh318" type="passenger" route="r1" depart="530.0"/>
    <vehicle id="veh319" type="passenger" route="r10" depart="531.67"/>
    <vehicle id="veh320" type="passenger" route="r9" depart="533.33"/>
    <vehicle id="veh321" type="passenger" route="r0" depart="535.0"/>
    <vehicle id="veh322" type="passenger" route="r2" depart="536.67"/>
    <vehicle id="veh323" type="passenger" route="r2" depart="538.33"/>
    <vehicle id="veh324" type="passenger" route="r8" depart="540.0"/>
    <vehicle id="veh325" type="passenger" route="r0" depart="541.67"/>
    <vehicle id="veh326" type="passenger" route="r7" depart="543.33"/>
    <vehicle id="veh327" type="passenger" route="r8" depart="545.0"/>
    <vehicle id="veh328" type="passenger" route="r4" depart="546.67"/>
    <vehicle id="veh329" type="passenger" route="r4" depart="548.33"/>
    <vehicle id="veh330" type="passenger" route="r4" depart="550.0"/>
    <vehicle id="veh331" type="passenger" route="r4" depart="551.67"/>
    <vehicle id="veh332" type="passenger" route="r11" depart="553.33"/>
    <vehicle id="veh333" type="passenger" route="r0" depart="555.0"/>
    <vehicle id="veh334" type="passenger" route="r9" depart="556.67"/>
    <vehicle id="veh335" type="passenger" route="r2" depart="558.33"/>
    <vehicle id="veh336" type="passenger" route="r10" depart="560.0"/>
    <vehicle id="veh337" type="passenger" route="r5" depart="561.67"/>
    <vehicle id="veh338" type="passenger" route="r0" depart="563.33"/>
    <vehicle id="veh339" type="passenger" route="r11" depart="565.0"/>
    <vehicle id="veh340" type="passenger" route="r1" depart="566.67"/>
    <vehicle id="veh341" type="passenger" route="r3" depart="568.33"/>
    <vehicle id="veh342" type="passenger" route="r7" depart="570.0"/>
    <vehicle id="veh343" type="passenger" route="r3" depart="571.67"/>
    <vehicle id="veh344" type="passenger" route="r1" depart="573.33"/>
    <vehicle id="veh345" type="passenger" route="r11" depart="575.0"/>
    <vehicle id="veh346" type="passenger" route="r2" depart="576.67"/>
    <vehicle id="veh347" type="passenger" route="r3" depart="578.33"/>
    <vehicle id="veh348" type="passenger" route="r1" depart="580.0"/>
    <vehicle id="veh349" type="passenger" route="r6" depart="581.67"/>
    <vehicle id="veh350" type="passenger" route="r3" depart="583.33"/>
    <vehicle id="veh351" type="passenger" route="r5" depart="585.0"/>
    <vehicle id="veh352" type="passenger" route="r1" depart="586.67"/>
    <vehicle id="veh353" type="passenger" route="r2" depart="588.33"/>
    <vehicle id="veh354" type="passenger" route="r7" depart="590.0"/>
    <vehicle id="veh355" type="passenger" route="r10" depart="591.67"/>
    <vehicle id="veh356" type="passenger" route="r6" depart="593.33"/>
    <vehicle id="veh357" type="passenger" route="r11" depart="595.0"/>
    <vehicle id="veh358" type="passenger" route="r2" depart="596.67"/>
    <vehicle id="veh359" type="passenger" route="r11" depart="598.33"/>
    <vehicle id="veh360" type="passenger" route="r7" depart="600.0"/>
    <vehicle id="veh361" type="passenger" route="r4" depart="601.67"/>
    <vehicle id="veh362" type="passenger" route="r9" depart="603.33"/>
    <vehicle id="veh363" type="passenger" route="r4" depart="605.0"/>
    <vehicle id="veh364" type="passenger" route="r10" depart="606.67"/>
    <vehicle id="veh365" type="passenger" route="r11" depart="608.33"/>
    <vehicle id="veh366" type="passenger" route="r10" depart="610.0"/>
    <vehicle id="veh367" type="passenger" route="r3" depart="611.67"/>
    <vehicle id="veh368" type="passenger" route="r3" depart="613.33"/>
    <vehicle id="veh369" type="passenger" route="r10" depart="615.0"/>
    <vehicle id="veh370" type="passenger" route="r10" depart="616.67"/>
    <vehicle id="veh371" type="emergency" route="r0" depart="618.33"/>
    <vehicle id="veh372" type="passenger" route="r4" depart="620.0"/>
    <vehicle id="veh373" type="passenger" route="r9" depart="621.67"/>
    <vehicle id="veh374" type="passenger" route="r3" depart="623.33"/>
    <vehicle id="veh375" type="passenger" route="r1" depart="625.0"/>
    <vehicle id="veh376" type="passenger" route="r10" depart="626.67"/>
    <vehicle id="veh377" type="passenger" route="r3" depart="628.33"/>
    <vehicle id="veh378" type="passenger" route="r5" depart="630.0"/>
    <vehicle id="veh379" type="passenger" route="r5" depart="631.67"/>
    <vehicle id="veh380" type="passenger" route="r5" depart="633.33"/>
    <vehicle id="veh381" type="passenger" route="r2" depart="635.0"/>
    <vehicle id="veh382" type="passenger" route="r1" depart="636.67"/>
    <vehicle id="veh383" type="passenger" route="r7" depart="638.33"/>
    <vehicle id="veh384" type="passenger" route="r9" depart="640.0"/>
    <vehicle id="veh385" type="passenger" route="r3" depart="641.67"/>
    <vehicle id="veh386" type="passenger" route="r11" depart="643.33"/>
    <vehicle id="veh387" type="passenger" route="r2" depart="645.0"/>
    <vehicle id="veh388" type="passenger" route="r10" depart="646.67"/>
    <vehicle id="veh389" type="passenger" route="r9" depart="648.33"/>
    <vehicle id="veh390" type="passenger" route="r8" depart="650.0"/>
    <vehicle id="veh391" type="passenger" route="r2" depart="651.67"/>
    <vehicle id="veh392" type="passenger" route="r5" depart="653.33"/>
    <vehicle id="veh393" type="passenger" route="r7" depart="655.0"/>
    <vehicle id="veh394" type="passenger" route="r1" depart="656.67"/>
    <vehicle id="veh395" type="passenger" route="r6" depart="658.33"/>
    <vehicle id="veh396" type="passenger" route="r7" depart="660.0"/>
    <vehicle id="veh397" type="passenger" route="r7" depart="661.67"/>
    <vehicle id="veh398" type="passenger" route="r0" depart="663.33"/>
    <vehicle id="veh399" type="passenger" route="r3" depart="665.0"/>
    <vehicle id="veh400" type="passenger" route="r9" depart="666.67"/>
    <vehicle id="veh401" type="passenger" route="r4" depart="668.33"/>
    <vehicle id="veh402" type="passenger" route="r11" depart="670.0"/>
    <vehicle id="veh403" type="passenger" route="r2" depart="671.67"/>
    <vehicle id="veh404" type="passenger" route="r10" depart="673.33"/>
    <vehicle id="veh405" type="passenger" route="r5" depart="675.0"/>
    <vehicle id="veh406" type="passenger" route="r5" depart="676.67"/>
    <vehicle id="veh407" type="passenger" route="r9" depart="678.33"/>
    <vehicle id="veh408" type="passenger" route="r10" depart="680.0"/>
    <vehicle id="veh409" type="passenger" route="r7" depart="681.67"/>
    <vehicle id="veh410" type="passenger" route="r4" depart="683.33"/>
    <vehicle id="veh411" type="passenger" route="r3" depart="685.0"/>
    <vehicle id="veh412" type="passenger" route="r11" depart="686.67"/>
    <vehicle id="veh413" type="passenger" route="r3" depart="688.33"/>