<nodes>
    <node id="P0" x="50.0" y="230.0" type="traffic_light"/>
    <node id="P1" x="350.0" y="230.0" type="traffic_light"/>
    <node id="P2" x="650.0" y="230.0" type="priority"/>
    <node id="P3" x="50.0" y="410.0" type="priority"/>
    <node id="P4" x="50.0" y="50.0" type="priority"/>
    <node id="P5" x="350.0" y="410.0" type="priority"/>
    <node id="P6" x="350.0" y="50.0" type="priority"/>
</nodes>