<nodes>
    <node id="J0_0" x="1193.17" y="1019.59" type="traffic_light"/>
    <node id="W0" x="180.0" y="1040.0" type="priority"/>
    <node id="E0" x="2213.2" y="1040.0" type="priority"/>
    <node id="N0" x="1200.0" y="1900.0" type="priority"/>
    <node id="S0" x="1200.0" y="186.62" type="priority"/>
</nodes>