<edges>
    <edge id="SE0_W0_J0_0" from="W0" to="J0_0" numLanes="1" speed="13.9" shape="180.0,1040.0 470.43,1040.0 760.92,1040.0 1051.35,1022.07"/>
    <edge id="SE0_J0_0_W0" from="J0_0" to="W0" numLanes="1" speed="13.9" shape="1051.35,1022.07 760.92,1040.0 470.43,1040.0 180.0,1040.0"/>
    <edge id="SE1_J0_0_E0" from="J0_0" to="E0" numLanes="1" speed="13.9" shape="1341.85,1016.98 1632.28,1003.62 1922.77,997.0 2213.2,1040.0"/>
    <edge id="SE1_E0_J0_0" from="E0" to="J0_0" numLanes="1" speed="13.9" shape="2213.2,1040.0 1922.77,997.0 1632.28,1003.62 1341.85,1016.98"/>
    <edge id="SE2_N0_J0_0" from="N0" to="J0_0" numLanes="1" speed="13.9" shape="1200.0,1900.0 1200.0,1655.23 1200.0,1410.46 1198.16,1165.69"/>
    <edge id="SE2_J0_0_N0" from="J0_0" to="N0" numLanes="1" speed="13.9" shape="1198.16,1165.69 1200.0,1410.46 1200.0,1655.23 1200.0,1900.0"/>
    <edge id="SE3_J0_0_S0" from="J0_0" to="S0" numLanes="1" speed="13.9" shape="1189.8,920.92 1149.0,676.15 1128.6,431.38 1200.0,186.62"/>
    <edge id="SE3_S0_J0_0" from="S0" to="J0_0" numLanes="1" speed="13.9" shape="1200.0,186.62 1128.6,431.38 1149.0,676.15 1189.8,920.92"/>
</edges>