<?xml version="1.0" encoding="UTF-8"?>

<!-- generated on 2026-04-11T15:11:06.740806+05:30 by Eclipse SUMO netconvert 1.26.0
<netconvertConfiguration xmlns:xsi="http://www.w3.org/2001/XMLSchema-instance" xsi:noNamespaceSchemaLocation="http://sumo.dlr.de/xsd/netconvertConfiguration.xsd">

    <input>
        <node-files value="C:\Users\santhosh\OneDrive\Desktop\trafiic pro\web_runs\20260411_151106_481992\area.nod.xml"/>
        <edge-files value="C:\Users\santhosh\OneDrive\Desktop\trafiic pro\web_runs\20260411_151106_481992\area.edg.xml"/>
    </input>

    <output>
        <output-file value="C:\Users\santhosh\OneDrive\Desktop\trafiic pro\web_runs\20260411_151106_481992\area.net.xml"/>
    </output>

</netconvertConfiguration>
-->

<net version="1.20" junctionCornerDetail="5" limitTurnSpeed="5.50" xmlns:xsi="http://www.w3.org/2001/XMLSchema-instance" xsi:noNamespaceSchemaLocation="http://sumo.dlr.de/xsd/net_file.xsd">

    <location netOffset="0.00,0.00" convBoundary="0.00,0.00,900.00,698.00" origBoundary="0.00,0.00,900.00,698.00" projParameter="!"/>

    <edge id=":E0_0" function="internal">
        <lane id=":E0_0_0" index="0" speed="3.65" length="4.67" shape="900.00,126.83 901.20,127.63 901.60,128.43 901.20,129.23 900.00,130.03"/>
    </edge>
    <edge id=":E1_0" function="internal">
        <lane id=":E1_0_0" index="0" speed="3.65" length="4.67" shape="900.00,566.30 901.20,567.10 901.60,567.90 901.20,568.70 900.00,569.50"/>
    </edge>
    <edge id=":J0_0_0" function="internal">
        <lane id=":J0_0_0_0" index="0" speed="7.01" length="10.10" shape="150.32,109.46 147.72,109.84 145.79,111.03 144.54,113.02 143.96,115.82"/>
    </edge>
    <edge id=":J0_0_1" function="internal">
        <lane id=":J0_0_1_0" index="0" speed="13.90" length="21.23" shape="150.32,109.46 129.09,109.38"/>
        <lane id=":J0_0_1_1" index="1" speed="13.90" length="21.23" shape="150.34,106.26 129.09,106.18"/>
    </edge>
    <edge id=":J0_0_3" function="internal">
        <lane id=":J0_0_3_0" index="0" speed="9.28" length="4.87" shape="150.34,106.26 145.52,105.53"/>
    </edge>
    <edge id=":J0_0_4" function="internal">
        <lane id=":J0_0_4_0" index="0" speed="3.65" length="1.44" shape="150.34,106.26 149.15,105.45"/>
    </edge>
    <edge id=":J0_0_20" function="internal">
        <lane id=":J0_0_20_0" index="0" speed="9.28" length="14.46" shape="145.52,105.53 145.12,105.47 141.38,103.19 139.15,99.43 138.40,94.18"/>
    </edge>
    <edge id=":J0_0_21" function="internal">
        <lane id=":J0_0_21_0" index="0" speed="3.65" length="3.23" shape="149.15,105.45 148.75,104.65 149.16,103.85 150.36,103.06"/>
    </edge>
    <edge id=":J0_0_5" function="internal">
        <lane id=":J0_0_5_0" index="0" speed="6.54" length="9.07" shape="144.80,94.18 145.15,96.65 146.20,98.42 147.94,99.49 150.39,99.86"/>
    </edge>
    <edge id=":J0_0_6" function="internal">
        <lane id=":J0_0_6_0" index="0" speed="13.90" length="21.53" shape="144.80,94.18 143.96,115.82"/>
        <lane id=":J0_0_6_1" index="1" speed="13.90" length="21.53" shape="141.60,94.18 140.77,115.58"/>
    </edge>
    <edge id=":J0_0_8" function="internal">
        <lane id=":J0_0_8_0" index="0" speed="9.35" length="5.41" shape="141.60,94.18 140.82,99.43 140.76,99.52"/>
    </edge>
    <edge id=":J0_0_9" function="internal">
        <lane id=":J0_0_9_0" index="0" speed="3.65" length="1.44" shape="141.60,94.18 140.80,95.38"/>
    </edge>
    <edge id=":J0_0_22" function="internal">
        <lane id=":J0_0_22_0" index="0" speed="9.35" length="14.35" shape="140.76,99.52 138.47,103.18 134.57,105.43 129.09,106.18"/>
    </edge>
    <edge id=":J0_0_23" function="internal">
        <lane id=":J0_0_23_0" index="0" speed="3.65" length="3.23" shape="140.80,95.38 140.00,95.78 139.20,95.38 138.40,94.18"/>
    </edge>
    <edge id=":J0_0_10" function="internal">
        <lane id=":J0_0_10_0" index="0" speed="6.64" length="9.44" shape="129.09,99.78 131.77,99.43 133.67,98.38 134.82,96.63 135.20,94.18"/>
    </edge>
    <edge id=":J0_0_11" function="internal">
        <lane id=":J0_0_11_0" index="0" speed="13.90" length="21.28" shape="129.09,99.78 150.39,99.86"/>
        <lane id=":J0_0_11_1" index="1" speed="13.90" length="21.28" shape="129.09,102.98 150.36,103.06"/>
    </edge>
    <edge id=":J0_0_13" function="internal">
        <lane id=":J0_0_13_0" index="0" speed="9.14" length="5.10" shape="129.09,102.98 134.14,103.71"/>
    </edge>
    <edge id=":J0_0_14" function="internal">
        <lane id=":J0_0_14_0" index="0" speed="3.65" length="1.44" shape="129.09,102.98 130.29,103.78"/>
    </edge>
    <edge id=":J0_0_24" function="internal">
        <lane id=":J0_0_24_0" index="0" speed="9.14" length="14.84" shape="134.14,103.71 134.56,103.77 138.33,106.13 140.40,110.06 140.77,115.58"/>
    </edge>
    <edge id=":J0_0_25" function="internal">
        <lane id=":J0_0_25_0" index="0" speed="3.65" length="3.23" shape="130.29,103.78 130.69,104.58 130.29,105.38 129.09,106.18"/>
    </edge>
    <edge id=":J0_0_15" function="internal">
        <lane id=":J0_0_15_0" index="0" speed="6.35" length="9.04" shape="134.39,115.09 134.22,112.59 133.28,110.81 131.57,109.74 129.09,109.38"/>
    </edge>
    <edge id=":J0_0_16" function="internal">
        <lane id=":J0_0_16_0" index="0" speed="13.90" length="21.05" shape="134.39,115.09 135.20,94.18"/>
        <lane id=":J0_0_16_1" index="1" speed="13.90" length="21.05" shape="137.58,115.33 138.40,94.18"/>
    </edge>
    <edge id=":J0_0_18" function="internal">
        <lane id=":J0_0_18_0" index="0" speed="9.63" length="4.17" shape="137.58,115.33 138.45,111.25"/>
    </edge>
    <edge id=":J0_0_19" function="internal">
        <lane id=":J0_0_19_0" index="0" speed="3.65" length="1.44" shape="137.58,115.33 138.47,114.20"/>
    </edge>
    <edge id=":J0_0_26" function="internal">
        <lane id=":J0_0_26_0" index="0" speed="9.63" length="15.74" shape="138.45,111.25 138.73,109.93 141.24,106.08 145.12,103.79 150.36,103.06"/>
    </edge>
    <edge id=":J0_0_27" function="internal">
        <lane id=":J0_0_27_0" index="0" speed="3.65" length="3.23" shape="138.47,114.20 139.29,113.86 140.06,114.32 140.77,115.58"/>
    </edge>
    <edge id=":J0_1_0" function="internal">
        <lane id=":J0_1_0_0" index="0" speed="6.40" length="9.04" shape="466.66,112.68 464.18,112.86 462.39,113.81 461.29,115.51 460.89,117.97"/>
    </edge>
    <edge id=":J0_1_1" function="internal">
        <lane id=":J0_1_1_0" index="0" speed="13.90" length="27.40" shape="466.66,112.68 439.39,111.63"/>
        <lane id=":J0_1_1_1" index="1" speed="13.90" length="27.40" shape="466.89,109.49 439.41,108.43"/>
    </edge>
    <edge id=":J0_1_3" function="internal">
        <lane id=":J0_1_3_0" index="0" speed="10.22" length="5.07" shape="466.89,109.49 461.89,108.59"/>
    </edge>
    <edge id=":J0_1_4" function="internal">
        <lane id=":J0_1_4_0" index="0" speed="3.65" length="1.44" shape="466.89,109.49 465.74,108.61"/>
    </edge>
    <edge id=":J0_1_22" function="internal">
        <lane id=":J0_1_22_0" index="0" speed="10.22" length="17.49" shape="461.89,108.59 460.15,108.27 455.35,105.70 452.46,101.76 451.50,96.46"/>
    </edge>
    <edge id=":J0_1_23" function="internal">
        <lane id=":J0_1_23_0" index="0" speed="3.65" length="3.23" shape="465.74,108.61 465.40,107.78 465.85,107.01 467.11,106.30"/>
    </edge>
    <edge id=":J0_1_5" function="internal">
        <lane id=":J0_1_5_0" index="0" speed="7.06" length="10.24" shape="461.10,96.46 461.49,99.20 462.66,101.23 464.60,102.53 467.33,103.10"/>
    </edge>
    <edge id=":J0_1_6" function="internal">
        <lane id=":J0_1_6_0" index="0" speed="15.50" length="21.45" shape="461.10,96.46 460.89,117.97"/>
        <lane id=":J0_1_6_1" index="1" speed="15.50" length="21.45" shape="457.90,96.46 457.69,117.91"/>
        <lane id=":J0_1_6_2" index="2" speed="15.50" length="21.45" shape="454.70,96.46 454.49,117.84"/>
    </edge>
    <edge id=":J0_1_9" function="internal">
        <lane id=":J0_1_9_0" index="0" speed="9.83" length="4.24" shape="454.70,96.46 453.95,100.63"/>
    </edge>
    <edge id=":J0_1_10" function="internal">
        <lane id=":J0_1_10_0" index="0" speed="3.65" length="1.44" shape="454.70,96.46 453.90,97.66"/>
    </edge>
    <edge id=":J0_1_24" function="internal">
        <lane id=":J0_1_24_0" index="0" speed="9.83" length="17.85" shape="453.95,100.63 453.74,101.74 450.88,105.49 446.10,107.72 439.41,108.43"/>
    </edge>
    <edge id=":J0_1_25" function="internal">
        <lane id=":J0_1_25_0" index="0" speed="3.65" length="3.23" shape="453.90,97.66 453.10,98.06 452.30,97.66 451.50,96.46"/>
    </edge>
    <edge id=":J0_1_11" function="internal">
        <lane id=":J0_1_11_0" index="0" speed="6.50" length="9.06" shape="439.46,102.03 441.93,101.70 443.69,100.66 444.75,98.91 445.10,96.46"/>
    </edge>
    <edge id=":J0_1_12" function="internal">
        <lane id=":J0_1_12_0" index="0" speed="13.90" length="27.79" shape="439.46,102.03 467.33,103.10"/>
        <lane id=":J0_1_12_1" index="1" speed="13.90" length="27.79" shape="439.43,105.23 467.11,106.30"/>
    </edge>
    <edge id=":J0_1_14" function="internal">
        <lane id=":J0_1_14_0" index="0" speed="9.88" length="6.92" shape="439.43,105.23 446.11,106.06 446.28,106.14"/>
    </edge>
    <edge id=":J0_1_15" function="internal">
        <lane id=":J0_1_15_0" index="0" speed="3.65" length="1.44" shape="439.43,105.23 440.63,106.04"/>
    </edge>
    <edge id=":J0_1_26" function="internal">
        <lane id=":J0_1_26_0" index="0" speed="9.88" length="15.47" shape="446.28,106.14 450.85,108.44 453.64,112.37 454.49,117.84"/>
    </edge>
    <edge id=":J0_1_27" function="internal">
        <lane id=":J0_1_27_0" index="0" speed="3.65" length="3.23" shape="440.63,106.04 441.02,106.84 440.62,107.64 439.41,108.43"/>
    </edge>
    <edge id=":J0_1_16" function="internal">
        <lane id=":J0_1_16_0" index="0" speed="6.58" length="9.33" shape="444.89,117.66 444.59,115.03 443.57,113.16 441.84,112.02 439.39,111.63"/>
    </edge>
    <edge id=":J0_1_17" function="internal">
        <lane id=":J0_1_17_0" index="0" speed="15.50" length="21.26" shape="444.89,117.66 445.10,96.46"/>
        <lane id=":J0_1_17_1" index="1" speed="15.50" length="21.26" shape="448.09,117.72 448.30,96.46"/>
        <lane id=":J0_1_17_2" index="2" speed="15.50" length="21.26" shape="451.29,117.78 451.50,96.46"/>
    </edge>
    <edge id=":J0_1_20" function="internal">
        <lane id=":J0_1_20_0" index="0" speed="9.76" length="3.86" shape="451.29,117.78 452.04,114.00"/>
    </edge>
    <edge id=":J0_1_21" function="internal">
        <lane id=":J0_1_21_0" index="0" speed="3.65" length="1.44" shape="451.29,117.78 452.11,116.60"/>
    </edge>
    <edge id=":J0_1_28" function="internal">
        <lane id=":J0_1_28_0" index="0" speed="9.76" length="18.61" shape="452.04,114.00 452.37,112.35 455.37,108.63 460.28,106.61 467.11,106.30"/>
    </edge>
    <edge id=":J0_1_29" function="internal">
        <lane id=":J0_1_29_0" index="0" speed="3.65" length="3.23" shape="452.11,116.60 452.92,116.21 453.71,116.63 454.49,117.84"/>
    </edge>
    <edge id=":J0_2_0" function="internal">
        <lane id=":J0_2_0_0" index="0" speed="7.69" length="11.46" shape="759.52,139.79 758.84,136.76 757.39,134.53 755.17,133.10 752.19,132.47"/>
    </edge>
    <edge id=":J0_2_1" function="internal">
        <lane id=":J0_2_1_0" index="0" speed="13.90" length="22.10" shape="759.52,139.79 758.55,117.57"/>
        <lane id=":J0_2_1_1" index="1" speed="13.90" length="22.10" shape="762.71,139.51 761.75,117.57"/>
    </edge>
    <edge id=":J0_2_3" function="internal">
        <lane id=":J0_2_3_0" index="0" speed="9.13" length="5.70" shape="762.71,139.51 763.02,133.96 763.09,133.83"/>
    </edge>
    <edge id=":J0_2_4" function="internal">
        <lane id=":J0_2_4_0" index="0" speed="3.65" length="1.44" shape="762.71,139.51 763.41,138.25"/>
    </edge>
    <edge id=":J0_2_20" function="internal">
        <lane id=":J0_2_20_0" index="0" speed="9.13" length="14.33" shape="763.09,133.83 765.06,130.00 768.83,127.62 774.33,126.83"/>
    </edge>
    <edge id=":J0_2_21" function="internal">
        <lane id=":J0_2_21_0" index="0" speed="3.65" length="3.23" shape="763.41,138.25 764.17,137.78 765.00,138.11 765.90,139.23"/>
    </edge>
    <edge id=":J0_2_5" function="internal">
        <lane id=":J0_2_5_0" index="0" speed="6.33" length="9.04" shape="774.33,133.23 771.85,133.59 770.15,134.66 769.23,136.45 769.09,138.95"/>
    </edge>
    <edge id=":J0_2_6" function="internal">
        <lane id=":J0_2_6_0" index="0" speed="13.90" length="22.05" shape="774.33,133.23 752.19,132.47"/>
        <lane id=":J0_2_6_1" index="1" speed="13.90" length="22.05" shape="774.33,130.03 752.41,129.28"/>
    </edge>
    <edge id=":J0_2_8" function="internal">
        <lane id=":J0_2_8_0" index="0" speed="9.45" length="5.56" shape="774.33,130.03 768.83,129.25"/>
    </edge>
    <edge id=":J0_2_9" function="internal">
        <lane id=":J0_2_9_0" index="0" speed="3.65" length="1.44" shape="774.33,130.03 773.13,129.23"/>
    </edge>
    <edge id=":J0_2_22" function="internal">
        <lane id=":J0_2_22_0" index="0" speed="9.45" length="14.63" shape="768.83,129.25 764.90,126.92 762.54,123.02 761.75,117.57"/>
    </edge>
    <edge id=":J0_2_23" function="internal">
        <lane id=":J0_2_23_0" index="0" speed="3.65" length="3.23" shape="773.13,129.23 772.73,128.43 773.13,127.63 774.33,126.83"/>
    </edge>
    <edge id=":J0_2_10" function="internal">
        <lane id=":J0_2_10_0" index="0" speed="6.77" length="9.87" shape="768.15,117.57 768.54,120.22 769.70,122.12 771.63,123.25 774.33,123.63"/>
    </edge>
    <edge id=":J0_2_11" function="internal">
        <lane id=":J0_2_11_0" index="0" speed="13.90" length="21.54" shape="768.15,117.57 769.09,138.95"/>
        <lane id=":J0_2_11_1" index="1" speed="13.90" length="21.54" shape="764.95,117.57 765.90,139.23"/>
    </edge>
    <edge id=":J0_2_13" function="internal">
        <lane id=":J0_2_13_0" index="0" speed="9.15" length="3.84" shape="764.95,117.57 764.40,121.37"/>
    </edge>
    <edge id=":J0_2_14" function="internal">
        <lane id=":J0_2_14_0" index="0" speed="3.65" length="1.44" shape="764.95,117.57 764.15,118.77"/>
    </edge>
    <edge id=":J0_2_24" function="internal">
        <lane id=":J0_2_24_0" index="0" speed="9.15" length="16.05" shape="764.40,121.37 764.17,123.02 761.81,126.78 757.89,128.87 752.41,129.28"/>
    </edge>
    <edge id=":J0_2_25" function="internal">
        <lane id=":J0_2_25_0" index="0" speed="3.65" length="3.23" shape="764.15,118.77 763.35,119.17 762.55,118.77 761.75,117.57"/>
    </edge>
    <edge id=":J0_2_15" function="internal">
        <lane id=":J0_2_15_0" index="0" speed="6.36" length="9.04" shape="752.85,122.89 755.34,122.71 757.12,121.76 758.19,120.05 758.55,117.57"/>
    </edge>
    <edge id=":J0_2_16" function="internal">
        <lane id=":J0_2_16_0" index="0" speed="13.90" length="21.61" shape="752.85,122.89 774.33,123.63"/>
        <lane id=":J0_2_16_1" index="1" speed="13.90" length="21.61" shape="752.63,126.08 774.33,126.83"/>
    </edge>
    <edge id=":J0_2_18" function="internal">
        <lane id=":J0_2_18_0" index="0" speed="10.15" length="4.13" shape="752.63,126.08 756.67,126.93"/>
    </edge>
    <edge id=":J0_2_19" function="internal">
        <lane id=":J0_2_19_0" index="0" speed="3.65" length="1.44" shape="752.63,126.08 753.77,126.96"/>
    </edge>
    <edge id=":J0_2_26" function="internal">
        <lane id=":J0_2_26_0" index="0" speed="10.15" length="16.52" shape="756.67,126.93 758.03,127.22 762.04,129.79 764.67,133.80 765.90,139.23"/>
    </edge>
    <edge id=":J0_2_27" function="internal">
        <lane id=":J0_2_27_0" index="0" speed="3.65" length="3.23" shape="753.77,126.96 754.11,127.79 753.66,128.56 752.41,129.28"/>
    </edge>
    <edge id=":J1_0_0" function="internal">
        <lane id=":J1_0_0_0" index="0" speed="6.51" length="9.03" shape="98.55,600.03 98.20,597.58 97.15,595.83 95.40,594.78 92.95,594.43"/>
    </edge>
    <edge id=":J1_0_1" function="internal">
        <lane id=":J1_0_1_0" index="0" speed="13.90" length="28.10" shape="98.55,600.03 99.65,571.83"/>
        <lane id=":J1_0_1_1" index="1" speed="13.90" length="28.10" shape="101.75,600.03 102.84,572.08"/>
    </edge>
    <edge id=":J1_0_3" function="internal">
        <lane id=":J1_0_3_0" index="0" speed="10.10" length="6.94" shape="101.75,600.03 102.56,593.38 102.67,593.17"/>
    </edge>
    <edge id=":J1_0_4" function="internal">
        <lane id=":J1_0_4_0" index="0" speed="3.65" length="1.44" shape="101.75,600.03 102.55,598.83"/>
    </edge>
    <edge id=":J1_0_22" function="internal">
        <lane id=":J1_0_22_0" index="0" speed="10.10" length="15.89" shape="102.67,593.17 104.98,588.59 109.03,585.65 114.69,584.58"/>
    </edge>
    <edge id=":J1_0_23" function="internal">
        <lane id=":J1_0_23_0" index="0" speed="3.65" length="3.23" shape="102.55,598.83 103.35,598.43 104.15,598.83 104.95,600.03"/>
    </edge>
    <edge id=":J1_0_5" function="internal">
        <lane id=":J1_0_5_0" index="0" speed="6.90" length="10.11" shape="114.90,594.18 111.94,594.60 109.84,595.72 108.57,597.53 108.15,600.03"/>
    </edge>
    <edge id=":J1_0_6" function="internal">
        <lane id=":J1_0_6_0" index="0" speed="15.50" length="21.88" shape="114.90,594.18 92.95,594.43"/>
        <lane id=":J1_0_6_1" index="1" speed="15.50" length="21.88" shape="114.83,590.98 92.95,591.23"/>
        <lane id=":J1_0_6_2" index="2" speed="15.50" length="21.88" shape="114.76,587.78 92.95,588.03"/>
    </edge>
    <edge id=":J1_0_9" function="internal">
        <lane id=":J1_0_9_0" index="0" speed="9.70" length="4.35" shape="114.76,587.78 110.45,587.12"/>
    </edge>
    <edge id=":J1_0_10" function="internal">
        <lane id=":J1_0_10_0" index="0" speed="3.65" length="1.44" shape="114.76,587.78 113.54,587.01"/>
    </edge>
    <edge id=":J1_0_24" function="internal">
        <lane id=":J1_0_24_0" index="0" speed="9.70" length="18.58" shape="110.45,587.12 109.08,586.91 105.21,584.00 103.13,579.05 102.84,572.08"/>
    </edge>
    <edge id=":J1_0_25" function="internal">
        <lane id=":J1_0_25_0" index="0" speed="3.65" length="3.23" shape="113.54,587.01 113.12,586.22 113.50,585.41 114.69,584.58"/>
    </edge>
    <edge id=":J1_0_11" function="internal">
        <lane id=":J1_0_11_0" index="0" speed="6.30" length="9.04" shape="109.22,572.56 109.39,575.07 110.33,576.84 112.05,577.88 114.54,578.18"/>
    </edge>
    <edge id=":J1_0_12" function="internal">
        <lane id=":J1_0_12_0" index="0" speed="13.90" length="27.61" shape="109.22,572.56 108.15,600.03"/>
        <lane id=":J1_0_12_1" index="1" speed="13.90" length="27.61" shape="106.03,572.32 104.95,600.03"/>
    </edge>
    <edge id=":J1_0_14" function="internal">
        <lane id=":J1_0_14_0" index="0" speed="10.31" length="4.95" shape="106.03,572.32 105.13,577.19"/>
    </edge>
    <edge id=":J1_0_15" function="internal">
        <lane id=":J1_0_15_0" index="0" speed="3.65" length="1.44" shape="106.03,572.32 105.14,573.45"/>
    </edge>
    <edge id=":J1_0_26" function="internal">
        <lane id=":J1_0_26_0" index="0" speed="10.31" length="17.87" shape="105.13,577.19 104.76,579.19 102.16,584.10 98.22,587.05 92.95,588.03"/>
    </edge>
    <edge id=":J1_0_27" function="internal">
        <lane id=":J1_0_27_0" index="0" speed="3.65" length="3.23" shape="105.14,573.45 104.31,573.79 103.54,573.33 102.84,572.08"/>
    </edge>
    <edge id=":J1_0_16" function="internal">
        <lane id=":J1_0_16_0" index="0" speed="7.17" length="10.55" shape="92.95,578.43 95.69,578.02 97.72,576.78 99.04,574.72 99.65,571.83"/>
    </edge>
    <edge id=":J1_0_17" function="internal">
        <lane id=":J1_0_17_0" index="0" speed="15.50" length="21.67" shape="92.95,578.43 114.54,578.18"/>
        <lane id=":J1_0_17_1" index="1" speed="15.50" length="21.67" shape="92.95,581.63 114.61,581.38"/>
        <lane id=":J1_0_17_2" index="2" speed="15.50" length="21.67" shape="92.95,584.83 114.69,584.58"/>
    </edge>
    <edge id=":J1_0_20" function="internal">
        <lane id=":J1_0_20_0" index="0" speed="9.84" length="3.78" shape="92.95,584.83 96.67,585.50"/>
    </edge>
    <edge id=":J1_0_21" function="internal">
        <lane id=":J1_0_21_0" index="0" speed="3.65" length="1.44" shape="92.95,584.83 94.15,585.63"/>
    </edge>
    <edge id=":J1_0_28" function="internal">
        <lane id=":J1_0_28_0" index="0" speed="9.84" length="18.21" shape="96.67,585.50 98.20,585.78 101.95,588.63 104.20,593.38 104.95,600.03"/>
    </edge>
    <edge id=":J1_0_29" function="internal">
        <lane id=":J1_0_29_0" index="0" speed="3.65" length="3.23" shape="94.15,585.63 94.55,586.43 94.15,587.23 92.95,588.03"/>
    </edge>
    <edge id=":J1_1_0" function="internal">
        <lane id=":J1_1_0_0" index="0" speed="6.46" length="9.03" shape="435.85,592.78 435.50,590.32 434.44,588.59 432.68,587.57 430.22,587.27"/>
    </edge>
    <edge id=":J1_1_1" function="internal">
        <lane id=":J1_1_1_0" index="0" speed="15.50" length="28.00" shape="435.85,592.78 436.13,564.72"/>
        <lane id=":J1_1_1_1" index="1" speed="15.50" length="28.00" shape="439.05,592.78 439.33,564.78"/>
        <lane id=":J1_1_1_2" index="2" speed="15.50" length="28.00" shape="442.25,592.78 442.53,564.84"/>
    </edge>
    <edge id=":J1_1_4" function="internal">
        <lane id=":J1_1_4_0" index="0" speed="10.63" length="5.30" shape="442.25,592.78 443.01,587.53"/>
    </edge>
    <edge id=":J1_1_5" function="internal">
        <lane id=":J1_1_5_0" index="0" speed="3.65" length="1.44" shape="442.25,592.78 443.05,591.58"/>
    </edge>
    <edge id=":J1_1_24" function="internal">
        <lane id=":J1_1_24_0" index="0" speed="10.63" length="19.92" shape="443.01,587.53 443.23,586.03 446.16,581.14 451.05,578.11 457.89,576.93"/>
    </edge>
    <edge id=":J1_1_25" function="internal">
        <lane id=":J1_1_25_0" index="0" speed="3.65" length="3.23" shape="443.05,591.58 443.85,591.18 444.65,591.58 445.45,592.78"/>
    </edge>
    <edge id=":J1_1_6" function="internal">
        <lane id=":J1_1_6_0" index="0" speed="6.91" length="10.08" shape="458.19,586.53 455.42,586.99 453.43,588.19 452.25,590.12 451.85,592.78"/>
    </edge>
    <edge id=":J1_1_7" function="internal">
        <lane id=":J1_1_7_0" index="0" speed="15.50" length="27.95" shape="458.19,586.53 430.22,587.27"/>
        <lane id=":J1_1_7_1" index="1" speed="15.50" length="27.95" shape="458.09,583.33 430.15,584.07"/>
        <lane id=":J1_1_7_2" index="2" speed="15.50" length="27.95" shape="457.99,580.13 430.08,580.87"/>
    </edge>
    <edge id=":J1_1_10" function="internal">
        <lane id=":J1_1_10_0" index="0" speed="10.29" length="5.14" shape="457.99,580.13 452.88,579.56"/>
    </edge>
    <edge id=":J1_1_11" function="internal">
        <lane id=":J1_1_11_0" index="0" speed="3.65" length="1.44" shape="457.99,580.13 456.77,579.37"/>
    </edge>
    <edge id=":J1_1_26" function="internal">
        <lane id=":J1_1_26_0" index="0" speed="10.29" length="19.95" shape="452.88,579.56 451.11,579.36 446.24,576.55 443.38,571.72 442.53,564.84"/>
    </edge>
    <edge id=":J1_1_27" function="internal">
        <lane id=":J1_1_27_0" index="0" speed="3.65" length="3.23" shape="456.77,579.37 456.34,578.58 456.72,577.77 457.89,576.93"/>
    </edge>
    <edge id=":J1_1_12" function="internal">
        <lane id=":J1_1_12_0" index="0" speed="6.40" length="9.04" shape="452.12,565.03 452.43,567.51 453.46,569.25 455.22,570.26 457.69,570.54"/>
    </edge>
    <edge id=":J1_1_13" function="internal">
        <lane id=":J1_1_13_0" index="0" speed="15.50" length="27.81" shape="452.12,565.03 451.85,592.78"/>
        <lane id=":J1_1_13_1" index="1" speed="15.50" length="27.81" shape="448.93,564.97 448.65,592.78"/>
        <lane id=":J1_1_13_2" index="2" speed="15.50" length="27.81" shape="445.73,564.91 445.45,592.78"/>
    </edge>
    <edge id=":J1_1_16" function="internal">
        <lane id=":J1_1_16_0" index="0" speed="10.68" length="4.81" shape="445.73,564.91 444.97,569.66"/>
    </edge>
    <edge id=":J1_1_17" function="internal">
        <lane id=":J1_1_17_0" index="0" speed="3.65" length="1.44" shape="445.73,564.91 444.90,566.09"/>
    </edge>
    <edge id=":J1_1_28" function="internal">
        <lane id=":J1_1_28_0" index="0" speed="10.68" length="20.46" shape="444.97,569.66 444.63,571.77 441.66,576.71 436.81,579.75 430.08,580.87"/>
    </edge>
    <edge id=":J1_1_29" function="internal">
        <lane id=":J1_1_29_0" index="0" speed="3.65" length="3.23" shape="444.90,566.09 444.09,566.47 443.30,566.06 442.53,564.84"/>
    </edge>
    <edge id=":J1_1_18" function="internal">
        <lane id=":J1_1_18_0" index="0" speed="6.99" length="10.24" shape="429.87,571.27 432.56,570.81 434.50,569.57 435.69,567.54 436.13,564.72"/>
    </edge>
    <edge id=":J1_1_19" function="internal">
        <lane id=":J1_1_19_0" index="0" speed="15.50" length="27.87" shape="429.87,571.27 457.69,570.54"/>
        <lane id=":J1_1_19_1" index="1" speed="15.50" length="27.87" shape="429.94,574.47 457.79,573.74"/>
        <lane id=":J1_1_19_2" index="2" speed="15.50" length="27.87" shape="430.01,577.67 457.89,576.93"/>
    </edge>
    <edge id=":J1_1_22" function="internal">
        <lane id=":J1_1_22_0" index="0" speed="10.33" length="4.85" shape="430.01,577.67 434.82,578.26"/>
    </edge>
    <edge id=":J1_1_23" function="internal">
        <lane id=":J1_1_23_0" index="0" speed="3.65" length="1.44" shape="430.01,577.67 431.22,578.45"/>
    </edge>
    <edge id=":J1_1_30" function="internal">
        <lane id=":J1_1_30_0" index="0" speed="10.33" length="19.91" shape="434.82,578.26 436.76,578.49 441.59,581.28 444.48,586.05 445.45,592.78"/>
    </edge>
    <edge id=":J1_1_31" function="internal">
        <lane id=":J1_1_31_0" index="0" speed="3.65" length="3.23" shape="431.22,578.45 431.64,579.24 431.26,580.05 430.08,580.87"/>
    </edge>
    <edge id=":J1_2_0" function="internal">
        <lane id=":J1_2_0_0" index="0" speed="6.50" length="9.24" shape="796.97,581.70 796.60,579.24 795.50,577.51 793.65,576.51 791.07,576.23"/>
    </edge>
    <edge id=":J1_2_1" function="internal">
        <lane id=":J1_2_1_0" index="0" speed="13.90" length="27.47" shape="796.97,581.70 795.77,554.40"/>
        <lane id=":J1_2_1_1" index="1" speed="13.90" length="27.47" shape="800.17,581.70 798.96,554.12"/>
    </edge>
    <edge id=":J1_2_3" function="internal">
        <lane id=":J1_2_3_0" index="0" speed="9.88" length="4.59" shape="800.17,581.70 800.68,577.14"/>
    </edge>
    <edge id=":J1_2_4" function="internal">
        <lane id=":J1_2_4_0" index="0" speed="3.65" length="1.44" shape="800.17,581.70 800.97,580.50"/>
    </edge>
    <edge id=":J1_2_22" function="internal">
        <lane id=":J1_2_22_0" index="0" speed="9.88" length="17.57" shape="800.68,577.14 800.92,574.96 803.17,570.15 806.92,567.26 812.17,566.30"/>
    </edge>
    <edge id=":J1_2_23" function="internal">
        <lane id=":J1_2_23_0" index="0" speed="3.65" length="3.23" shape="800.97,580.50 801.77,580.10 802.57,580.50 803.37,581.70"/>
    </edge>
    <edge id=":J1_2_5" function="internal">
        <lane id=":J1_2_5_0" index="0" speed="6.56" length="9.20" shape="812.17,575.90 809.72,576.26 807.97,577.35 806.92,579.16 806.57,581.70"/>
    </edge>
    <edge id=":J1_2_6" function="internal">
        <lane id=":J1_2_6_0" index="0" speed="15.50" length="21.20" shape="812.17,575.90 791.07,576.23"/>
        <lane id=":J1_2_6_1" index="1" speed="15.50" length="21.20" shape="812.17,572.70 790.97,573.04"/>
        <lane id=":J1_2_6_2" index="2" speed="15.50" length="21.20" shape="812.17,569.50 790.87,569.84"/>
    </edge>
    <edge id=":J1_2_9" function="internal">
        <lane id=":J1_2_9_0" index="0" speed="10.30" length="3.68" shape="812.17,569.50 808.55,568.84"/>
    </edge>
    <edge id=":J1_2_10" function="internal">
        <lane id=":J1_2_10_0" index="0" speed="3.65" length="1.44" shape="812.17,569.50 810.97,568.70"/>
    </edge>
    <edge id=":J1_2_24" function="internal">
        <lane id=":J1_2_24_0" index="0" speed="10.30" length="18.93" shape="808.55,568.84 806.89,568.54 802.93,565.65 800.29,560.85 798.96,554.12"/>
    </edge>
    <edge id=":J1_2_25" function="internal">
        <lane id=":J1_2_25_0" index="0" speed="3.65" length="3.23" shape="810.97,568.70 810.57,567.90 810.97,567.10 812.17,566.30"/>
    </edge>
    <edge id=":J1_2_11" function="internal">
        <lane id=":J1_2_11_0" index="0" speed="7.17" length="10.44" shape="805.33,553.56 805.97,556.33 807.32,558.31 809.39,559.50 812.17,559.90"/>
    </edge>
    <edge id=":J1_2_12" function="internal">
        <lane id=":J1_2_12_0" index="0" speed="13.90" length="28.03" shape="805.33,553.56 806.57,581.70"/>
        <lane id=":J1_2_12_1" index="1" speed="13.90" length="28.03" shape="802.15,553.84 803.37,581.70"/>
    </edge>
    <edge id=":J1_2_14" function="internal">
        <lane id=":J1_2_14_0" index="0" speed="9.75" length="7.23" shape="802.15,553.84 801.95,560.69 801.82,561.04"/>
    </edge>
    <edge id=":J1_2_15" function="internal">
        <lane id=":J1_2_15_0" index="0" speed="3.65" length="1.44" shape="802.15,553.84 801.45,555.10"/>
    </edge>
    <edge id=":J1_2_26" function="internal">
        <lane id=":J1_2_26_0" index="0" speed="9.75" length="15.29" shape="801.82,561.04 800.01,565.64 796.32,568.69 790.87,569.84"/>
    </edge>
    <edge id=":J1_2_27" function="internal">
        <lane id=":J1_2_27_0" index="0" speed="3.65" length="3.23" shape="801.45,555.10 800.69,555.57 799.86,555.24 798.96,554.12"/>
    </edge>
    <edge id=":J1_2_16" function="internal">
        <lane id=":J1_2_16_0" index="0" speed="6.39" length="9.04" shape="790.58,560.24 793.04,559.81 794.72,558.69 795.63,556.89 795.77,554.40"/>
    </edge>
    <edge id=":J1_2_17" function="internal">