<?xml version="1.0" encoding="UTF-8"?>

<!-- generated on 2026-04-11T15:30:11.901113+05:30 by Eclipse SUMO netconvert 1.26.0
<netconvertConfiguration xmlns:xsi="http://www.w3.org/2001/XMLSchema-instance" xsi:noNamespaceSchemaLocation="http://sumo.dlr.de/xsd/netconvertConfiguration.xsd">

    <input>
        <node-files value="C:\Users\santhosh\OneDrive\Desktop\trafiic pro\web_runs\20260411_153011_729407\area.nod.xml"/>
        <edge-files value="C:\Users\santhosh\OneDrive\Desktop\trafiic pro\web_runs\20260411_153011_729407\area.edg.xml"/>
    </input>

    <output>
        <output-file value="C:\Users\santhosh\OneDrive\Desktop\trafiic pro\web_runs\20260411_153011_729407\area.net.xml"/>
    </output>

</netconvertConfiguration>
-->

<net version="1.20" junctionCornerDetail="5" limitTurnSpeed="5.50" xmlns:xsi="http://www.w3.org/2001/XMLSchema-instance" xsi:noNamespaceSchemaLocation="http://sumo.dlr.de/xsd/net_file.xsd">

    <location netOffset="0.00,0.00" convBoundary="0.00,0.00,900.00,1059.00" origBoundary="0.00,0.00,900.00,1059.00" projParameter="!"/>

    <edge id=":E0_0" function="internal">
        <lane id=":E0_0_0" index="0" speed="3.65" length="4.67" shape="900.00,105.33 901.20,106.13 901.60,106.93 901.20,107.73 900.00,108.53"/>
    </edge>
    <edge id=":E1_0" function="internal">
        <lane id=":E1_0_0" index="0" speed="3.65" length="4.67" shape="900.00,938.37 901.20,939.17 901.60,939.97 901.20,940.77 900.00,941.57"/>
    </edge>
    <edge id=":J0_0_0" function="internal">
        <lane id=":J0_0_0_0" index="0" speed="6.80" length="9.65" shape="150.36,109.42 147.82,109.79 145.97,110.92 144.81,112.81 144.33,115.46"/>
    </edge>
    <edge id=":J0_0_1" function="internal">
        <lane id=":J0_0_1_0" index="0" speed="13.90" length="21.05" shape="150.36,109.42 129.32,109.38"/>
        <lane id=":J0_0_1_1" index="1" speed="13.90" length="21.05" shape="150.37,106.22 129.32,106.18"/>
    </edge>
    <edge id=":J0_0_3" function="internal">
        <lane id=":J0_0_3_0" index="0" speed="9.27" length="4.94" shape="150.37,106.22 145.48,105.50"/>
    </edge>
    <edge id=":J0_0_4" function="internal">
        <lane id=":J0_0_4_0" index="0" speed="3.65" length="1.44" shape="150.37,106.22 149.17,105.41"/>
    </edge>
    <edge id=":J0_0_20" function="internal">
        <lane id=":J0_0_20_0" index="0" speed="9.27" length="14.40" shape="145.48,105.50 145.13,105.45 141.39,103.19 139.15,99.43 138.40,94.18"/>
    </edge>
    <edge id=":J0_0_21" function="internal">
        <lane id=":J0_0_21_0" index="0" speed="3.65" length="3.23" shape="149.17,105.41 148.78,104.61 149.18,103.81 150.38,103.02"/>
    </edge>
    <edge id=":J0_0_5" function="internal">
        <lane id=":J0_0_5_0" index="0" speed="6.52" length="9.05" shape="144.80,94.18 145.15,96.64 146.20,98.40 147.95,99.46 150.39,99.82"/>
    </edge>
    <edge id=":J0_0_6" function="internal">
        <lane id=":J0_0_6_0" index="0" speed="13.90" length="21.22" shape="144.80,94.18 144.33,115.46"/>
        <lane id=":J0_0_6_1" index="1" speed="13.90" length="21.22" shape="141.60,94.18 141.13,115.32"/>
    </edge>
    <edge id=":J0_0_8" function="internal">
        <lane id=":J0_0_8_0" index="0" speed="9.31" length="5.31" shape="141.60,94.18 140.83,99.43"/>
    </edge>
    <edge id=":J0_0_9" function="internal">
        <lane id=":J0_0_9_0" index="0" speed="3.65" length="1.44" shape="141.60,94.18 140.80,95.38"/>
    </edge>
    <edge id=":J0_0_22" function="internal">
        <lane id=":J0_0_22_0" index="0" speed="9.31" length="14.28" shape="140.83,99.43 138.53,103.18 134.69,105.43 129.32,106.18"/>
    </edge>
    <edge id=":J0_0_23" function="internal">
        <lane id=":J0_0_23_0" index="0" speed="3.65" length="3.23" shape="140.80,95.38 140.00,95.78 139.20,95.38 138.40,94.18"/>
    </edge>
    <edge id=":J0_0_10" function="internal">
        <lane id=":J0_0_10_0" index="0" speed="6.58" length="9.26" shape="129.32,99.78 131.89,99.43 133.73,98.38 134.83,96.63 135.20,94.18"/>
    </edge>
    <edge id=":J0_0_11" function="internal">
        <lane id=":J0_0_11_0" index="0" speed="13.90" length="21.07" shape="129.32,99.78 150.39,99.82"/>
        <lane id=":J0_0_11_1" index="1" speed="13.90" length="21.07" shape="129.32,102.98 150.38,103.02"/>
    </edge>
    <edge id=":J0_0_13" function="internal">
        <lane id=":J0_0_13_0" index="0" speed="9.19" length="5.05" shape="129.32,102.98 134.31,103.70"/>
    </edge>
    <edge id=":J0_0_14" function="internal">
        <lane id=":J0_0_14_0" index="0" speed="3.65" length="1.44" shape="129.32,102.98 130.52,103.78"/>
    </edge>
    <edge id=":J0_0_24" function="internal">
        <lane id=":J0_0_24_0" index="0" speed="9.19" length="14.64" shape="134.31,103.70 134.69,103.75 138.45,106.07 140.60,109.92 141.13,115.32"/>
    </edge>
    <edge id=":J0_0_25" function="internal">
        <lane id=":J0_0_25_0" index="0" speed="3.65" length="3.23" shape="130.52,103.78 130.92,104.58 130.52,105.38 129.32,106.18"/>
    </edge>
    <edge id=":J0_0_15" function="internal">
        <lane id=":J0_0_15_0" index="0" speed="6.41" length="9.04" shape="134.74,115.05 134.49,112.57 133.51,110.80 131.78,109.73 129.32,109.38"/>
    </edge>
    <edge id=":J0_0_16" function="internal">
        <lane id=":J0_0_16_0" index="0" speed="13.90" length="20.94" shape="134.74,115.05 135.20,94.18"/>
        <lane id=":J0_0_16_1" index="1" speed="13.90" length="20.94" shape="137.94,115.18 138.40,94.18"/>
    </edge>
    <edge id=":J0_0_18" function="internal">
        <lane id=":J0_0_18_0" index="0" speed="9.47" length="4.49" shape="137.94,115.18 138.75,110.77"/>
    </edge>
    <edge id=":J0_0_19" function="internal">
        <lane id=":J0_0_19_0" index="0" speed="3.65" length="1.44" shape="137.94,115.18 138.79,114.02"/>
    </edge>
    <edge id=":J0_0_26" function="internal">
        <lane id=":J0_0_26_0" index="0" speed="9.47" length="15.19" shape="138.75,110.77 138.91,109.85 141.31,106.04 145.14,103.76 150.38,103.02"/>
    </edge>
    <edge id=":J0_0_27" function="internal">
        <lane id=":J0_0_27_0" index="0" speed="3.65" length="3.23" shape="138.79,114.02 139.61,113.66 140.39,114.09 141.13,115.32"/>
    </edge>
    <edge id=":J0_1_0" function="internal">
        <lane id=":J0_1_0_0" index="0" speed="6.60" length="9.23" shape="796.70,111.73 794.22,112.09 792.44,113.17 791.36,114.97 790.98,117.49"/>
    </edge>
    <edge id=":J0_1_1" function="internal">
        <lane id=":J0_1_1_0" index="0" speed="13.90" length="27.26" shape="796.70,111.73 769.43,111.68"/>
        <lane id=":J0_1_1_1" index="1" speed="13.90" length="27.26" shape="796.70,108.53 769.45,108.48"/>
    </edge>
    <edge id=":J0_1_3" function="internal">
        <lane id=":J0_1_3_0" index="0" speed="9.84" length="6.38" shape="796.70,108.53 790.36,107.81"/>
    </edge>
    <edge id=":J0_1_4" function="internal">
        <lane id=":J0_1_4_0" index="0" speed="3.65" length="1.44" shape="796.70,108.53 795.50,107.73"/>
    </edge>
    <edge id=":J0_1_22" function="internal">
        <lane id=":J0_1_22_0" index="0" speed="9.84" length="15.64" shape="790.36,107.81 790.05,107.78 785.30,105.52 782.45,101.76 781.50,96.49"/>
    </edge>
    <edge id=":J0_1_23" function="internal">
        <lane id=":J0_1_23_0" index="0" speed="3.65" length="3.23" shape="795.50,107.73 795.10,106.93 795.50,106.13 796.70,105.33"/>
    </edge>
    <edge id=":J0_1_5" function="internal">
        <lane id=":J0_1_5_0" index="0" speed="6.52" length="9.06" shape="791.10,96.49 791.45,98.96 792.50,100.72 794.25,101.78 796.70,102.13"/>
    </edge>
    <edge id=":J0_1_6" function="internal">
        <lane id=":J0_1_6_0" index="0" speed="15.50" length="20.96" shape="791.10,96.49 790.98,117.49"/>
        <lane id=":J0_1_6_1" index="1" speed="15.50" length="20.96" shape="787.90,96.49 787.78,117.45"/>
        <lane id=":J0_1_6_2" index="2" speed="15.50" length="20.96" shape="784.70,96.49 784.58,117.42"/>
    </edge>
    <edge id=":J0_1_9" function="internal">
        <lane id=":J0_1_9_0" index="0" speed="9.84" length="4.13" shape="784.70,96.49 783.96,100.56"/>
    </edge>
    <edge id=":J0_1_10" function="internal">
        <lane id=":J0_1_10_0" index="0" speed="3.65" length="1.44" shape="784.70,96.49 783.90,97.69"/>
    </edge>
    <edge id=":J0_1_24" function="internal">
        <lane id=":J0_1_24_0" index="0" speed="9.84" length="17.92" shape="783.96,100.56 783.75,101.76 780.89,105.51 776.12,107.75 769.45,108.48"/>
    </edge>
    <edge id=":J0_1_25" function="internal">
        <lane id=":J0_1_25_0" index="0" speed="3.65" length="3.23" shape="783.90,97.69 783.10,98.09 782.30,97.69 781.50,96.49"/>
    </edge>
    <edge id=":J0_1_11" function="internal">
        <lane id=":J0_1_11_0" index="0" speed="6.51" length="9.05" shape="769.47,102.08 771.93,101.74 773.69,100.69 774.75,98.95 775.10,96.49"/>
    </edge>
    <edge id=":J0_1_12" function="internal">
        <lane id=":J0_1_12_0" index="0" speed="13.90" length="27.24" shape="769.47,102.08 796.70,102.13"/>
        <lane id=":J0_1_12_1" index="1" speed="13.90" length="27.24" shape="769.46,105.28 796.70,105.33"/>
    </edge>
    <edge id=":J0_1_14" function="internal">
        <lane id=":J0_1_14_0" index="0" speed="9.83" length="6.18" shape="769.46,105.28 775.59,106.00"/>
    </edge>
    <edge id=":J0_1_15" function="internal">
        <lane id=":J0_1_15_0" index="0" speed="3.65" length="1.44" shape="769.46,105.28 770.66,106.08"/>
    </edge>
    <edge id=":J0_1_26" function="internal">
        <lane id=":J0_1_26_0" index="0" speed="9.83" length="15.89" shape="775.59,106.00 776.13,106.06 780.87,108.34 783.69,112.13 784.58,117.42"/>
    </edge>
    <edge id=":J0_1_27" function="internal">
        <lane id=":J0_1_27_0" index="0" speed="3.65" length="3.23" shape="770.66,106.08 771.05,106.89 770.65,107.68 769.45,108.48"/>
    </edge>
    <edge id=":J0_1_16" function="internal">
        <lane id=":J0_1_16_0" index="0" speed="6.49" length="9.03" shape="774.98,117.31 774.66,114.86 773.63,113.10 771.89,112.04 769.43,111.68"/>
    </edge>
    <edge id=":J0_1_17" function="internal">
        <lane id=":J0_1_17_0" index="0" speed="15.50" length="20.85" shape="774.98,117.31 775.10,96.49"/>
        <lane id=":J0_1_17_1" index="1" speed="15.50" length="20.85" shape="778.18,117.35 778.30,96.49"/>
        <lane id=":J0_1_17_2" index="2" speed="15.50" length="20.85" shape="781.38,117.38 781.50,96.49"/>
    </edge>
    <edge id=":J0_1_20" function="internal">
        <lane id=":J0_1_20_0" index="0" speed="9.90" length="3.92" shape="781.38,117.38 782.12,113.53"/>
    </edge>
    <edge id=":J0_1_21" function="internal">
        <lane id=":J0_1_21_0" index="0" speed="3.65" length="1.44" shape="781.38,117.38 782.20,116.19"/>
    </edge>
    <edge id=":J0_1_28" function="internal">
        <lane id=":J0_1_28_0" index="0" speed="9.90" length="18.16" shape="782.12,113.53 782.39,112.11 785.28,108.34 790.05,106.08 796.70,105.33"/>
    </edge>
    <edge id=":J0_1_29" function="internal">
        <lane id=":J0_1_29_0" index="0" speed="3.65" length="3.23" shape="782.20,116.19 783.00,115.80 783.80,116.21 784.58,117.42"/>
    </edge>
    <edge id=":J1_0_0" function="internal">
        <lane id=":J1_0_0_0" index="0" speed="6.51" length="9.03" shape="98.55,961.03 98.20,958.58 97.15,956.83 95.40,955.78 92.95,955.43"/>
    </edge>
    <edge id=":J1_0_1" function="internal">
        <lane id=":J1_0_1_0" index="0" speed="13.90" length="27.70" shape="98.55,961.03 99.16,933.27"/>
        <lane id=":J1_0_1_1" index="1" speed="13.90" length="27.70" shape="101.75,961.03 102.36,933.41"/>
    </edge>
    <edge id=":J1_0_3" function="internal">
        <lane id=":J1_0_3_0" index="0" speed="9.98" length="6.70" shape="101.75,961.03 102.53,954.38"/>
    </edge>
    <edge id=":J1_0_4" function="internal">
        <lane id=":J1_0_4_0" index="0" speed="3.65" length="1.44" shape="101.75,961.03 102.55,959.83"/>
    </edge>
    <edge id=":J1_0_22" function="internal">
        <lane id=":J1_0_22_0" index="0" speed="9.98" length="15.75" shape="102.53,954.38 104.88,949.61 108.79,946.72 114.27,945.71"/>
    </edge>
    <edge id=":J1_0_23" function="internal">
        <lane id=":J1_0_23_0" index="0" speed="3.65" length="3.23" shape="102.55,959.83 103.35,959.43 104.15,959.83 104.95,961.03"/>
    </edge>
    <edge id=":J1_0_5" function="internal">
        <lane id=":J1_0_5_0" index="0" speed="6.72" length="9.61" shape="114.37,955.31 111.65,955.69 109.71,956.77 108.54,958.55 108.15,961.03"/>
    </edge>
    <edge id=":J1_0_6" function="internal">
        <lane id=":J1_0_6_0" index="0" speed="15.50" length="21.39" shape="114.37,955.31 92.95,955.43"/>
        <lane id=":J1_0_6_1" index="1" speed="15.50" length="21.39" shape="114.34,952.11 92.95,952.23"/>
        <lane id=":J1_0_6_2" index="2" speed="15.50" length="21.39" shape="114.30,948.91 92.95,949.03"/>
    </edge>
    <edge id=":J1_0_9" function="internal">
        <lane id=":J1_0_9_0" index="0" speed="9.76" length="4.18" shape="114.30,948.91 110.18,948.22"/>
    </edge>
    <edge id=":J1_0_10" function="internal">
        <lane id=":J1_0_10_0" index="0" speed="3.65" length="1.44" shape="114.30,948.91 113.09,948.12"/>
    </edge>
    <edge id=":J1_0_24" function="internal">
        <lane id=":J1_0_24_0" index="0" speed="9.76" length="18.33" shape="110.18,948.22 108.82,947.99 105.00,945.10 102.85,940.24 102.36,933.41"/>
    </edge>
    <edge id=":J1_0_25" function="internal">
        <lane id=":J1_0_25_0" index="0" speed="3.65" length="3.23" shape="113.09,948.12 112.68,947.33 113.07,946.52 114.27,945.71"/>
    </edge>
    <edge id=":J1_0_11" function="internal">
        <lane id=":J1_0_11_0" index="0" speed="6.39" length="9.04" shape="108.75,933.69 109.00,936.17 109.99,937.94 111.72,938.98 114.19,939.31"/>
    </edge>
    <edge id=":J1_0_12" function="internal">
        <lane id=":J1_0_12_0" index="0" speed="13.90" length="27.42" shape="108.75,933.69 108.15,961.03"/>
        <lane id=":J1_0_12_1" index="1" speed="13.90" length="27.42" shape="105.56,933.55 104.95,961.03"/>
    </edge>
    <edge id=":J1_0_14" function="internal">
        <lane id=":J1_0_14_0" index="0" speed="10.10" length="5.44" shape="105.56,933.55 104.73,938.92"/>
    </edge>
    <edge id=":J1_0_15" function="internal">
        <lane id=":J1_0_15_0" index="0" speed="3.65" length="1.44" shape="105.56,933.55 104.70,934.71"/>
    </edge>
    <edge id=":J1_0_26" function="internal">
        <lane id=":J1_0_26_0" index="0" speed="10.10" length="17.01" shape="104.73,938.92 104.51,940.32 102.07,945.16 98.21,948.06 92.95,949.03"/>
    </edge>
    <edge id=":J1_0_27" function="internal">
        <lane id=":J1_0_27_0" index="0" speed="3.65" length="3.23" shape="104.70,934.71 103.89,935.08 103.11,934.64 102.36,933.41"/>
    </edge>
    <edge id=":J1_0_16" function="internal">
        <lane id=":J1_0_16_0" index="0" speed="6.88" length="9.88" shape="92.95,939.43 95.57,939.05 97.47,937.89 98.67,935.97 99.16,933.27"/>
    </edge>
    <edge id=":J1_0_17" function="internal">
        <lane id=":J1_0_17_0" index="0" speed="15.50" length="21.28" shape="92.95,939.43 114.19,939.31"/>
        <lane id=":J1_0_17_1" index="1" speed="15.50" length="21.28" shape="92.95,942.63 114.23,942.51"/>
        <lane id=":J1_0_17_2" index="2" speed="15.50" length="21.28" shape="92.95,945.83 114.27,945.71"/>
    </edge>
    <edge id=":J1_0_20" function="internal">
        <lane id=":J1_0_20_0" index="0" speed="9.84" length="3.89" shape="92.95,945.83 96.78,946.52"/>
    </edge>
    <edge id=":J1_0_21" function="internal">
        <lane id=":J1_0_21_0" index="0" speed="3.65" length="1.44" shape="92.95,945.83 94.15,946.63"/>
    </edge>
    <edge id=":J1_0_28" function="internal">
        <lane id=":J1_0_28_0" index="0" speed="9.84" length="18.10" shape="96.78,946.52 98.20,946.78 101.95,949.63 104.20,954.38 104.95,961.03"/>
    </edge>
    <edge id=":J1_0_29" function="internal">
        <lane id=":J1_0_29_0" index="0" speed="3.65" length="3.23" shape="94.15,946.63 94.55,947.43 94.15,948.23 92.95,949.03"/>
    </edge>
    <edge id=":J1_1_0" function="internal">
        <lane id=":J1_1_0_0" index="0" speed="6.48" length="9.03" shape="765.85,953.68 765.50,951.22 764.45,949.48 762.69,948.45 760.23,948.12"/>
    </edge>
    <edge id=":J1_1_1" function="internal">
        <lane id=":J1_1_1_0" index="0" speed="15.50" length="27.47" shape="765.85,953.68 766.00,926.17"/>
        <lane id=":J1_1_1_1" index="1" speed="15.50" length="27.47" shape="769.05,953.68 769.20,926.21"/>
        <lane id=":J1_1_1_2" index="2" speed="15.50" length="27.47" shape="772.25,953.68 772.40,926.25"/>
    </edge>
    <edge id=":J1_1_4" function="internal">
        <lane id=":J1_1_4_0" index="0" speed="10.40" length="5.21" shape="772.25,953.68 772.99,948.52"/>
    </edge>
    <edge id=":J1_1_5" function="internal">
        <lane id=":J1_1_5_0" index="0" speed="3.65" length="1.44" shape="772.25,953.68 773.05,952.48"/>
    </edge>
    <edge id=":J1_1_24" function="internal">
        <lane id=":J1_1_24_0" index="0" speed="10.40" length="19.48" shape="772.99,948.52 773.21,946.98 776.08,942.20 780.86,939.33 787.56,938.37"/>
    </edge>
    <edge id=":J1_1_25" function="internal">
        <lane id=":J1_1_25_0" index="0" speed="3.65" length="3.23" shape="773.05,952.48 773.85,952.08 774.65,952.48 775.45,953.68"/>
    </edge>
    <edge id=":J1_1_6" function="internal">
        <lane id=":J1_1_6_0" index="0" speed="6.56" length="9.20" shape="787.56,947.97 785.06,948.33 783.28,949.40 782.21,951.18 781.85,953.68"/>
    </edge>
    <edge id=":J1_1_7" function="internal">
        <lane id=":J1_1_7_0" index="0" speed="15.50" length="27.36" shape="787.56,947.97 760.23,948.12"/>
        <lane id=":J1_1_7_1" index="1" speed="15.50" length="27.36" shape="787.56,944.77 760.20,944.92"/>
        <lane id=":J1_1_7_2" index="2" speed="15.50" length="27.36" shape="787.56,941.57 760.16,941.72"/>
    </edge>
    <edge id=":J1_1_10" function="internal">
        <lane id=":J1_1_10_0" index="0" speed="10.35" length="4.82" shape="787.56,941.57 782.78,940.89"/>
    </edge>
    <edge id=":J1_1_11" function="internal">
        <lane id=":J1_1_11_0" index="0" speed="3.65" length="1.44" shape="787.56,941.57 786.36,940.77"/>
    </edge>
    <edge id=":J1_1_26" function="internal">
        <lane id=":J1_1_26_0" index="0" speed="10.35" length="19.82" shape="782.78,940.89 780.86,940.61 776.11,937.74 773.29,932.95 772.40,926.25"/>
    </edge>
    <edge id=":J1_1_27" function="internal">
        <lane id=":J1_1_27_0" index="0" speed="3.65" length="3.23" shape="786.36,940.77 785.96,939.97 786.36,939.17 787.56,938.37"/>
    </edge>
    <edge id=":J1_1_12" function="internal">
        <lane id=":J1_1_12_0" index="0" speed="6.48" length="9.03" shape="782.00,926.35 782.33,928.81 783.36,930.57 785.10,931.62 787.56,931.97"/>
    </edge>
    <edge id=":J1_1_13" function="internal">
        <lane id=":J1_1_13_0" index="0" speed="15.50" length="27.36" shape="782.00,926.35 781.85,953.68"/>
        <lane id=":J1_1_13_1" index="1" speed="15.50" length="27.36" shape="778.80,926.32 778.65,953.68"/>
        <lane id=":J1_1_13_2" index="2" speed="15.50" length="27.36" shape="775.60,926.28 775.45,953.68"/>
    </edge>
    <edge id=":J1_1_16" function="internal">
        <lane id=":J1_1_16_0" index="0" speed="10.50" length="4.85" shape="775.60,926.28 774.87,931.07"/>
    </edge>
    <edge id=":J1_1_17" function="internal">
        <lane id=":J1_1_17_0" index="0" speed="3.65" length="1.44" shape="775.60,926.28 774.79,927.47"/>
    </edge>
    <edge id=":J1_1_28" function="internal">
        <lane id=":J1_1_28_0" index="0" speed="10.50" length="19.93" shape="774.87,931.07 774.57,932.97 771.66,937.78 766.85,940.69 760.16,941.72"/>
    </edge>
    <edge id=":J1_1_29" function="internal">
        <lane id=":J1_1_29_0" index="0" speed="3.65" length="3.23" shape="774.79,927.47 773.98,927.86 773.19,927.45 772.40,926.25"/>
    </edge>
    <edge id=":J1_1_18" function="internal">
        <lane id=":J1_1_18_0" index="0" speed="6.72" length="9.55" shape="760.05,932.12 762.63,931.73 764.48,930.60 765.61,928.75 766.00,926.17"/>
    </edge>
    <edge id=":J1_1_19" function="internal">
        <lane id=":J1_1_19_0" index="0" speed="15.50" length="27.47" shape="760.05,932.12 787.56,931.97"/>
        <lane id=":J1_1_19_1" index="1" speed="15.50" length="27.47" shape="760.09,935.32 787.56,935.17"/>
        <lane id=":J1_1_19_2" index="2" speed="15.50" length="27.47" shape="760.13,938.52 787.56,938.37"/>
    </edge>
    <edge id=":J1_1_22" function="internal">
        <lane id=":J1_1_22_0" index="0" speed="10.35" length="5.20" shape="760.13,938.52 765.28,939.20"/>
    </edge>
    <edge id=":J1_1_23" function="internal">
        <lane id=":J1_1_23_0" index="0" speed="3.65" length="1.44" shape="760.13,938.52 761.33,939.31"/>
    </edge>
    <edge id=":J1_1_30" function="internal">
        <lane id=":J1_1_30_0" index="0" speed="10.35" length="19.44" shape="765.28,939.20 766.83,939.41 771.62,942.23 774.49,946.98 775.45,953.68"/>
    </edge>
    <edge id=":J1_1_31" function="internal">
        <lane id=":J1_1_31_0" index="0" speed="3.65" length="3.23" shape="761.33,939.31 761.74,940.10 761.35,940.91 760.16,941.72"/>
    </edge>
    <edge id=":N0_0" function="internal">
        <lane id=":N0_0_0" index="0" speed="3.65" length="4.67" shape="138.40,0.00 139.20,-1.20 140.00,-1.60 140.80,-1.20 141.60,0.00"/>
    </edge>
    <edge id=":N1_0" function="internal">
        <lane id=":N1_0_0" index="0" speed="3.65" length="4.67" shape="781.50,0.00 782.30,-1.20 783.10,-1.60 783.90,-1.20 784.70,0.00"/>
    </edge>
    <edge id=":S0_0" function="internal">
        <lane id=":S0_0_0" index="0" speed="3.65" length="4.67" shape="104.95,1059.00 104.15,1060.20 103.35,1060.60 102.55,1060.20 101.75,1059.00"/>
    </edge>
    <edge id=":S1_0" function="internal">
        <lane id=":S1_0_0" index="0" speed="3.65" length="4.67" shape="775.45,1059.00 774.65,1060.20 773.85,1060.60 773.05,1060.20 772.25,1059.00"/>
    </edge>
    <edge id=":W0_0" function="internal">
        <lane id=":W0_0_0" index="0" speed="3.65" length="4.67" shape="0.00,106.18 -1.20,105.38 -1.60,104.58 -1.20,103.78 0.00,102.98"/>
    </edge>
    <edge id=":W1_0" function="internal">
        <lane id=":W1_0_0" index="0" speed="3.65" length="4.67" shape="0.00,949.03 -1.20,948.23 -1.60,947.43 -1.20,946.63 0.00,945.83"/>
    </edge>

    <edge id="E0_to_J0_1" from="E0" to="J0_1" priority="-1">
        <lane id="E0_to_J0_1_0" index="0" speed="13.90" length="103.30" shape="900.00,111.73 796.70,111.73"/>
        <lane id="E0_to_J0_1_1" index="1" speed="13.90" length="103.30" shape="900.00,108.53 796.70,108.53"/>
    </edge>
    <edge id="E1_to_J1_1" from="E1" to="J1_1" priority="-1">
        <lane id="E1_to_J1_1_0" index="0" speed="15.50" length="112.44" shape="900.00,947.97 787.56,947.97"/>
        <lane id="E1_to_J1_1_1" index="1" speed="15.50" length="112.44" shape="900.00,944.77 787.56,944.77"/>
        <lane id="E1_to_J1_1_2" index="2" speed="15.50" length="112.44" shape="900.00,941.57 787.56,941.57"/>
    </edge>
    <edge id="J0_0_to_J0_1" from="J0_0" to="J0_1" priority="-1">
        <lane id="J0_0_to_J0_1_0" index="0" speed="13.90" length="619.08" shape="150.39,99.82 769.47,102.08"/>
        <lane id="J0_0_to_J0_1_1" index="1" speed="13.90" length="619.08" shape="150.38,103.02 769.46,105.28"/>
    </edge>
    <edge id="J0_0_to_J1_0" from="J0_0" to="J1_0" priority="-1">
        <lane id="J0_0_to_J1_0_0" index="0" speed="13.90" length="819.00" shape="144.33,115.46 108.75,933.69"/>
        <lane id="J0_0_to_J1_0_1" index="1" speed="13.90" length="819.00" shape="141.13,115.32 105.56,933.55"/>
    </edge>
    <edge id="J0_0_to_N0" from="J0_0" to="N0" priority="-1">
        <lane id="J0_0_to_N0_0" index="0" speed="13.90" length="94.18" shape="135.20,94.18 135.20,0.00"/>
        <lane id="J0_0_to_N0_1" index="1" speed="13.90" length="94.18" shape="138.40,94.18 138.40,0.00"/>
    </edge>
    <edge id="J0_0_to_W0" from="J0_0" to="W0" priority="-1">
        <lane id="J0_0_to_W0_0" index="0" speed="13.90" length="129.32" shape="129.32,109.38 0.00,109.38"/>
        <lane id="J0_0_to_W0_1" index="1" speed="13.90" length="129.32" shape="129.32,106.18 0.00,106.18"/>
    </edge>
    <edge id="J0_1_to_E0" from="J0_1" to="E0" priority="-1">
        <lane id="J0_1_to_E0_0" index="0" speed="13.90" length="103.30" shape="796.70,102.13 900.00,102.13"/>
        <lane id="J0_1_to_E0_1" index="1" speed="13.90" length="103.30" shape="796.70,105.33 900.00,105.33"/>
    </edge>
    <edge id="J0_1_to_J0_0" from="J0_1" to="J0_0" priority="-1">
        <lane id="J0_1_to_J0_0_0" index="0" speed="13.90" length="619.08" shape="769.43,111.68 150.36,109.42"/>
        <lane id="J0_1_to_J0_0_1" index="1" speed="13.90" length="619.08" shape="769.45,108.48 150.37,106.22"/>
    </edge>
    <edge id="J0_1_to_J1_1" from="J0_1" to="J1_1" priority="-1">
        <lane id="J0_1_to_J1_1_0" index="0" speed="15.50" length="808.91" shape="790.98,117.49 782.00,926.35"/>
        <lane id="J0_1_to_J1_1_1" index="1" speed="15.50" length="808.91" shape="787.78,117.45 778.80,926.32"/>
        <lane id="J0_1_to_J1_1_2" index="2" speed="15.50" length="808.91" shape="784.58,117.42 775.60,926.28"/>
    </edge>
    <edge id="J0_1_to_N1" from="J0_1" to="N1" priority="-1">
        <lane id="J0_1_to_N1_0" index="0" speed="15.50" length="96.49" shape="775.10,96.49 775.10,0.00"/>
        <lane id="J0_1_to_N1_1" index="1" speed="15.50" length="96.49" shape="778.30,96.49 778.30,0.00"/>
        <lane id="J0_1_to_N1_2" index="2" speed="15.50" length="96.49" shape="781.50,96.49 781.50,0.00"/>
    </edge>
    <edge id="J1_0_to_J0_0" from="J1_0" to="J0_0" priority="-1">
        <lane id="J1_0_to_J0_0_0" index="0" speed="13.90" length="819.00" shape="99.16,933.27 134.74,115.05"/>
        <lane id="J1_0_to_J0_0_1" index="1" speed="13.90" length="819.00" shape="102.36,933.41 137.94,115.18"/>
    </edge>
    <edge id="J1_0_to_J1_1" from="J1_0" to="J1_1" priority="-1">
        <lane id="J1_0_to_J1_1_0" index="0" speed="15.50" length="645.90" shape="114.19,939.31 760.05,932.12"/>
        <lane id="J1_0_to_J1_1_1" index="1" speed="15.50" length="645.90" shape="114.23,942.51 760.09,935.32"/>
        <lane id="J1_0_to_J1_1_2" index="2" speed="15.50" length="645.90" shape="114.27,945.71 760.13,938.52"/>
    </edge>
    <edge id="J1_0_to_S0" from="J1_0" to="S0" priority="-1">
        <lane id="J1_0_to_S0_0" index="0" speed="13.90" length="97.97" shape="108.15,961.03 108.15,1059.00"/>
        <lane id="J1_0_to_S0_1" index="1" speed="13.90" length="97.97" shape="104.95,961.03 104.95,1059.00"/>
    </edge>
    <edge id="J1_0_to_W1" from="J1_0" to="W1" priority="-1">
        <lane id="J1_0_to_W1_0" index="0" speed="15.50" length="92.95" shape="92.95,955.43 0.00,955.43"/>
        <lane id="J1_0_to_W1_1" index="1" speed="15.50" length="92.95" shape="92.95,952.23 0.00,952.23"/>
        <lane id="J1_0_to_W1_2" index="2" speed="15.50" length="92.95" shape="92.95,949.03 0.00,949.03"/>
    </edge>
    <edge id="J1_1_to_E1" from="J1_1" to="E1" priority="-1">
        <lane id="J1_1_to_E1_0" index="0" speed="15.50" length="112.44" shape="787.56,931.97 900.00,931.97"/>
        <lane id="J1_1_to_E1_1" index="1" speed="15.50" length="112.44" shape="787.56,935.17 900.00,935.17"/>
        <lane id="J1_1_to_E1_2" index="2" speed="15.50" length="112.44" shape="787.56,938.37 900.00,938.37"/>
    </edge>
    <edge id="J1_1_to_J0_1" from="J1_1" to="J0_1" priority="-1">
        <lane id="J1_1_to_J0_1_0" index="0" speed="15.50" length="808.91" shape="766.00,926.17 774.98,117.31"/>
        <lane id="J1_1_to_J0_1_1" index="1" speed="15.50" length="808.91" shape="769.20,926.21 778.18,117.35"/>
        <lane id="J1_1_to_J0_1_2" index="2" speed="15.50" length="808.91" shape="772.40,926.25 781.38,117.38"/>
    </edge>
    <edge id="J1_1_to_J1_0" from="J1_1" to="J1_0" priority="-1">
        <lane id="J1_1_to_J1_0_0" index="0" speed="15.50" length="645.90" shape="760.23,948.12 114.37,955.31"/>
        <lane id="J1_1_to_J1_0_1" index="1" speed="15.50" length="645.90" shape="760.20,944.92 114.34,952.11"/>
        <lane id="J1_1_to_J1_0_2" index="2" speed="15.50" length="645.90" shape="760.16,941.72 114.30,948.91"/>
    </edge>
    <edge id="J1_1_to_S1" from="J1_1" to="S1" priority="-1">
        <lane id="J1_1_to_S1_0" index="0" speed="15.50" length="105.32" shape="781.85,953.68 781.85,1059.00"/>
        <lane id="J1_1_to_S1_1" index="1" speed="15.50" length="105.32" shape="778.65,953.68 778.65,1059.00"/>
        <lane id="J1_1_to_S1_2" index="2" speed="15.50" length="105.32" shape="775.45,953.68 775.45,1059.00"/>
    </edge>
    <edge id="N0_to_J0_0" from="N0" to="J0_0" priority="-1">
        <lane id="N0_to_J0_0_0" index="0" speed="13.90" length="94.18" shape="144.80,0.00 144.80,94.18"/>
        <lane id="N0_to_J0_0_1" index="1" speed="13.90" length="94.18" shape="141.60,0.00 141.60,94.18"/>
    </edge>
    <edge id="N1_to_J0_1" from="N1" to="J0_1" priority="-1">
        <lane id="N1_to_J0_1_0" index="0" speed="15.50" length="96.49" shape="791.10,0.00 791.10,96.49"/>
        <lane id="N1_to_J0_1_1" index="1" speed="15.50" length="96.49" shape="787.90,0.00 787.90,96.49"/>
        <lane id="N1_to_J0_1_2" index="2" speed="15.50" length="96.49" shape="784.70,0.00 784.70,96.49"/>
    </edge>
    <edge id="S0_to_J1_0" from="S0" to="J1_0" priority="-1">
        <lane id="S0_to_J1_0_0" index="0" speed="13.90" length="97.97" shape="98.55,1059.00 98.55,961.03"/>
        <lane id="S0_to_J1_0_1" index="1" speed="13.90" length="97.97" shape="101.75,1059.00 101.75,961.03"/>
    </edge>
    <edge id="S1_to_J1_1" from="S1" to="J1_1" priority="-1">
        <lane id="S1_to_J1_1_0" index="0" speed="15.50" length="105.32" shape="765.85,1059.00 765.85,953.68"/>
        <lane id="S1_to_J1_1_1" index="1" speed="15.50" length="105.32" shape="769.05,1059.00 769.05,953.68"/>